C46069-P55
     RDKit          3D

 32 33  0  0  0  0  0  0  0  0999 V2000
    7.8910   -3.2260   21.1787 C   0  0  0  0  0  0  0  0  0  0  0  0
    6.4881   -3.2232   20.9012 N   0  0  0  0  0  0  0  0  0  0  0  0
    5.6482   -2.1953   22.2333 C   0  0  0  0  0  0  0  0  0  0  0  0
    5.5403   -1.0352   21.8159 O   0  0  0  0  0  0  0  0  0  0  0  0
    5.0256   -2.2501   24.1327 C   0  0  0  0  0  0  0  0  0  0  0  0
    4.2324   -0.9946   24.9097 C   0  0  0  0  0  0  0  0  0  0  0  0
    3.8561   -3.0718   24.7211 C   0  0  0  0  0  0  0  0  0  0  0  0
    6.0628   -2.0047   25.0799 O   0  0  0  0  0  0  0  0  0  0  0  0
    8.5132   -3.7008   20.3139 C   0  0  0  0  0  0  0  0  0  0  0  0
    8.5825   -1.9589   18.9973 C   0  0  0  0  0  0  0  0  0  0  0  0
    9.2234   -1.8933   16.9996 C   0  0  0  0  0  0  0  0  0  0  0  0
   10.6121   -3.1863   16.7510 C   0  0  0  0  0  0  0  0  0  0  0  0
   11.7376   -3.2798   15.9871 N   0  0  0  0  0  0  0  0  0  0  0  0
   12.6523   -4.0490   16.6644 C   0  0  0  0  0  0  0  0  0  0  0  0
   12.2229   -4.7501   17.6932 N   0  0  0  0  0  0  0  0  0  0  0  0
   10.7491   -4.7107   17.8207 C   0  0  0  0  0  0  0  0  0  0  0  0
    9.6251   -5.1068   19.4896 C   0  0  0  0  0  0  0  0  0  0  0  0
    7.6816   -3.5429   22.3014 H   0  0  0  0  0  0  0  0  0  0  0  0
    7.5360   -1.9026   21.0600 H   0  0  0  0  0  0  0  0  0  0  0  0
    7.8474   -4.3446   21.7439 H   0  0  0  0  0  0  0  0  0  0  0  0
    3.1442   -1.0065   24.8381 H   0  0  0  0  0  0  0  0  0  0  0  0
    4.3984   -1.0586   26.0070 H   0  0  0  0  0  0  0  0  0  0  0  0
    4.5248    0.0168   24.7561 H   0  0  0  0  0  0  0  0  0  0  0  0
    3.4018   -2.7788   25.6829 H   0  0  0  0  0  0  0  0  0  0  0  0
    3.0946   -3.0661   23.9464 H   0  0  0  0  0  0  0  0  0  0  0  0
    4.1563   -4.0373   25.0551 H   0  0  0  0  0  0  0  0  0  0  0  0
    6.4455   -2.8383   25.3681 H   0  0  0  0  0  0  0  0  0  0  0  0
    7.9673   -0.9886   19.2906 H   0  0  0  0  0  0  0  0  0  0  0  0
    9.2519   -0.9981   16.3504 H   0  0  0  0  0  0  0  0  0  0  0  0
   11.9708   -2.6540   15.2304 H   0  0  0  0  0  0  0  0  0  0  0  0
   13.6876   -4.0411   16.3505 H   0  0  0  0  0  0  0  0  0  0  0  0
   10.3842   -5.5846   20.1277 H   0  0  0  0  0  0  0  0  0  0  0  0
  1  2  1  0
  2  3  1  0
  3  4  2  0
  3  5  1  0
  5  6  1  0
  5  7  1  0
  5  8  1  0
  2  9  1  0
  9 10  2  0
 10 11  1  0
 11 12  2  0
 12 13  1  0
 13 14  1  0
 14 15  2  0
 15 16  1  0
 16 17  2  0
 17  9  1  0
 16 12  1  0
  1 18  1  0
  1 19  1  0
  1 20  1  0
  6 21  1  0
  6 22  1  0
  6 23  1  0
  7 24  1  0
  7 25  1  0
  7 26  1  0
  8 27  1  0
 10 28  1  0
 11 29  1  0
 13 30  1  0
 14 31  1  0
 17 32  1  0
M  END
>  <Energy>  (1) 
1783.537306605635

>  <compound_id>  (1) 
46069

>  <target_id>  (1) 
1

>  <reference_id>  (1) 
55

>  <inspiration_ids>  (1) 
[55, 13]

>  <energy_score>  (1) 
1705.6182718559464

>  <distance_score>  (1) 
6.579487098219376

>  <path>  (1) 
/opt/xchem-fragalysis-2/maxwin/BulkDock/SCRATCH/511023/C46069-P55/C46069-P55.minimised.mol

>  <scratch_subdir>  (1) 
/opt/xchem-fragalysis-2/maxwin/BulkDock/SCRATCH/511023/C46069-P55

>  <fragmenstein_runtime>  (1) 
5.96239972114563

>  <fragmenstein_outcome>  (1) 
too moved

>  <fragmenstein_mode>  (1) 
expansion

>  <fragmenstein_error>  (1) 


$$$$
C46069-P13
     RDKit          3D

 32 33  0  0  0  0  0  0  0  0999 V2000
    8.1357   -4.3642   20.7952 C   0  0  0  0  0  0  0  0  0  0  0  0
    7.9434   -3.1056   21.1506 N   0  0  0  0  0  0  0  0  0  0  0  0
    6.4338   -2.9707   21.5856 C   0  0  0  0  0  0  0  0  0  0  0  0
    5.5155   -2.6997   20.8048 O   0  0  0  0  0  0  0  0  0  0  0  0
    5.8697   -3.0302   23.5589 C   0  0  0  0  0  0  0  0  0  0  0  0
    6.1517   -2.1945   25.2563 C   0  0  0  0  0  0  0  0  0  0  0  0
    4.4643   -2.0146   23.8118 C   0  0  0  0  0  0  0  0  0  0  0  0
    5.8058   -4.3719   24.2357 O   0  0  0  0  0  0  0  0  0  0  0  0
    9.1490   -4.5832   20.5326 C   0  0  0  0  0  0  0  0  0  0  0  0
   10.4138   -5.4787   20.4205 C   0  0  0  0  0  0  0  0  0  0  0  0
   12.0337   -5.8052   20.7842 C   0  0  0  0  0  0  0  0  0  0  0  0
   12.7362   -5.0915   21.6959 C   0  0  0  0  0  0  0  0  0  0  0  0
   14.0212   -4.8536   22.0497 N   0  0  0  0  0  0  0  0  0  0  0  0
   13.9984   -3.7201   22.8217 C   0  0  0  0  0  0  0  0  0  0  0  0
   12.7803   -3.2276   22.9159 N   0  0  0  0  0  0  0  0  0  0  0  0
   12.0168   -4.0560   22.1465 C   0  0  0  0  0  0  0  0  0  0  0  0
   10.6576   -4.0307   21.5716 C   0  0  0  0  0  0  0  0  0  0  0  0
    7.5275   -4.2862   19.8076 H   0  0  0  0  0  0  0  0  0  0  0  0
    7.0561   -4.8273   20.4164 H   0  0  0  0  0  0  0  0  0  0  0  0
    7.4419   -4.7197   21.6828 H   0  0  0  0  0  0  0  0  0  0  0  0
    5.9672   -2.9539   26.0331 H   0  0  0  0  0  0  0  0  0  0  0  0
    7.1383   -1.7353   25.4512 H   0  0  0  0  0  0  0  0  0  0  0  0
    5.5044   -1.3465   25.5337 H   0  0  0  0  0  0  0  0  0  0  0  0
    4.0626   -2.3531   24.7717 H   0  0  0  0  0  0  0  0  0  0  0  0
    3.6239   -2.1377   23.1414 H   0  0  0  0  0  0  0  0  0  0  0  0
    4.6962   -0.9529   23.8188 H   0  0  0  0  0  0  0  0  0  0  0  0
    6.6785   -4.4190   24.6713 H   0  0  0  0  0  0  0  0  0  0  0  0
   10.3496   -5.6027   19.3178 H   0  0  0  0  0  0  0  0  0  0  0  0
   12.6798   -6.0957   19.9669 H   0  0  0  0  0  0  0  0  0  0  0  0
   14.8412   -5.3686   21.7607 H   0  0  0  0  0  0  0  0  0  0  0  0
   14.8892   -3.3013   23.2702 H   0  0  0  0  0  0  0  0  0  0  0  0
   10.5102   -3.0695   22.0686 H   0  0  0  0  0  0  0  0  0  0  0  0
  1  2  1  0
  2  3  1  0
  3  4  2  0
  3  5  1  0
  5  6  1  0
  5  7  1  0
  5  8  1  0
  2  9  1  0
  9 10  2  0
 10 11  1  0
 11 12  2  0
 12 13  1  0
 13 14  1  0
 14 15  2  0
 15 16  1  0
 16 17  2  0
 17  9  1  0
 16 12  1  0
  1 18  1  0
  1 19  1  0
  1 20  1  0
  6 21  1  0
  6 22  1  0
  6 23  1  0
  7 24  1  0
  7 25  1  0
  7 26  1  0
  8 27  1  0
 10 28  1  0
 11 29  1  0
 13 30  1  0
 14 31  1  0
 17 32  1  0
M  END
>  <Energy>  (2) 
1074.0777476938549

>  <compound_id>  (2) 
46069

>  <target_id>  (2) 
1

>  <reference_id>  (2) 
13

>  <inspiration_ids>  (2) 
[55, 13]

>  <energy_score>  (2) 
996.158712944144

>  <distance_score>  (2) 
8.171266166667444

>  <path>  (2) 
/opt/xchem-fragalysis-2/maxwin/BulkDock/SCRATCH/511023/C46069-P13/C46069-P13.minimised.mol

>  <scratch_subdir>  (2) 
/opt/xchem-fragalysis-2/maxwin/BulkDock/SCRATCH/511023/C46069-P13

>  <fragmenstein_runtime>  (2) 
5.537415981292725

>  <fragmenstein_outcome>  (2) 
too moved

>  <fragmenstein_mode>  (2) 
expansion

>  <fragmenstein_error>  (2) 


$$$$
C46070-P55
     RDKit          3D

 26 27  0  0  0  0  0  0  0  0999 V2000
    5.2052    0.2253   21.6381 C   0  0  0  0  0  0  0  0  0  0  0  0
    5.3905   -1.2328   21.5884 N   0  0  0  0  0  0  0  0  0  0  0  0
    5.1974   -1.9269   23.2238 C   0  0  0  0  0  0  0  0  0  0  0  0
    6.0027   -2.1316   24.0768 O   0  0  0  0  0  0  0  0  0  0  0  0
    3.7329   -2.2612   23.7895 C   0  0  0  0  0  0  0  0  0  0  0  0
    3.7291   -1.8076   25.1759 N   0  0  0  0  0  0  0  0  0  0  0  0
    2.9039   -2.8373   23.1636 O   0  0  0  0  0  0  0  0  0  0  0  0
    6.9896   -0.6908   20.5448 C   0  0  0  0  0  0  0  0  0  0  0  0
    7.6195   -0.7587   19.2163 C   0  0  0  0  0  0  0  0  0  0  0  0
    8.0391   -0.1526   17.5328 C   0  0  0  0  0  0  0  0  0  0  0  0
    7.9122    1.1342   17.2515 C   0  0  0  0  0  0  0  0  0  0  0  0
    8.2538    2.0923   16.3824 N   0  0  0  0  0  0  0  0  0  0  0  0
    7.6481    3.2207   16.8576 C   0  0  0  0  0  0  0  0  0  0  0  0
    7.0148    2.9752   17.9910 N   0  0  0  0  0  0  0  0  0  0  0  0
    7.2599    1.6539   18.3001 C   0  0  0  0  0  0  0  0  0  0  0  0
    6.9999    0.5061   19.5384 C   0  0  0  0  0  0  0  0  0  0  0  0
    4.2730    0.5993   21.3266 H   0  0  0  0  0  0  0  0  0  0  0  0
    6.0501    0.8303   21.7561 H   0  0  0  0  0  0  0  0  0  0  0  0
    4.6500    0.5674   22.4685 H   0  0  0  0  0  0  0  0  0  0  0  0
    4.5769   -1.2376   25.3482 H   0  0  0  0  0  0  0  0  0  0  0  0
    4.6723   -1.4440   25.4170 H   0  0  0  0  0  0  0  0  0  0  0  0
    8.6268   -0.9360   19.5214 H   0  0  0  0  0  0  0  0  0  0  0  0
    8.5337   -0.7682   16.7689 H   0  0  0  0  0  0  0  0  0  0  0  0
    8.8337    2.0103   15.5581 H   0  0  0  0  0  0  0  0  0  0  0  0
    7.7010    4.1752   16.3497 H   0  0  0  0  0  0  0  0  0  0  0  0
    6.0732    0.2895   18.9026 H   0  0  0  0  0  0  0  0  0  0  0  0
  1  2  1  0
  2  3  1  0
  3  4  2  0
  3  5  1  0
  5  6  1  0
  5  7  2  0
  2  8  1  0
  8  9  2  0
  9 10  1  0
 10 11  2  0
 11 12  1  0
 12 13  1  0
 13 14  2  0
 14 15  1  0
 15 16  2  0
 16  8  1  0
 15 11  1  0
  1 17  1  0
  1 18  1  0
  1 19  1  0
  6 20  1  0
  6 21  1  0
  9 22  1  0
 10 23  1  0
 12 24  1  0
 13 25  1  0
 16 26  1  0
M  END
>  <Energy>  (3) 
788.2287497415324

>  <compound_id>  (3) 
46070

>  <target_id>  (3) 
1

>  <reference_id>  (3) 
55

>  <inspiration_ids>  (3) 
[55, 13]

>  <energy_score>  (3) 
707.5305064929429

>  <distance_score>  (3) 
7.39036175701703

>  <path>  (3) 
/opt/xchem-fragalysis-2/maxwin/BulkDock/SCRATCH/511023/C46070-P55/C46070-P55.minimised.mol

>  <scratch_subdir>  (3) 
/opt/xchem-fragalysis-2/maxwin/BulkDock/SCRATCH/511023/C46070-P55

>  <fragmenstein_runtime>  (3) 
4.7173545360565186

>  <fragmenstein_outcome>  (3) 
too moved

>  <fragmenstein_mode>  (3) 
expansion

>  <fragmenstein_error>  (3) 


$$$$
C46070-P13
     RDKit          3D

 26 27  0  0  0  0  0  0  0  0999 V2000
    8.8265    1.5311   20.4865 C   0  0  0  0  0  0  0  0  0  0  0  0
    7.3233    1.4824   20.0174 N   0  0  0  0  0  0  0  0  0  0  0  0
    6.2484    2.4960   21.0954 C   0  0  0  0  0  0  0  0  0  0  0  0
    6.1723    3.6599   20.6538 O   0  0  0  0  0  0  0  0  0  0  0  0
    5.0156    1.9396   22.8035 C   0  0  0  0  0  0  0  0  0  0  0  0
    4.1250    3.2538   23.0595 N   0  0  0  0  0  0  0  0  0  0  0  0
    4.9291    0.8981   23.3873 O   0  0  0  0  0  0  0  0  0  0  0  0
    8.0134    1.7506   18.6888 C   0  0  0  0  0  0  0  0  0  0  0  0
    7.7127    0.7578   17.7490 C   0  0  0  0  0  0  0  0  0  0  0  0
    8.2978    0.6551   16.4827 C   0  0  0  0  0  0  0  0  0  0  0  0
    9.1021    1.7213   16.1275 C   0  0  0  0  0  0  0  0  0  0  0  0
    9.8526    1.9690   15.0081 N   0  0  0  0  0  0  0  0  0  0  0  0
   10.3377    3.2399   15.1111 C   0  0  0  0  0  0  0  0  0  0  0  0
    9.9485    3.8190   16.2244 N   0  0  0  0  0  0  0  0  0  0  0  0
    9.2085    2.8734   16.8995 C   0  0  0  0  0  0  0  0  0  0  0  0
    8.5977    2.9227   18.1783 C   0  0  0  0  0  0  0  0  0  0  0  0
    9.0794    1.4390   21.5595 H   0  0  0  0  0  0  0  0  0  0  0  0
    9.4022    2.4382   20.2520 H   0  0  0  0  0  0  0  0  0  0  0  0
    9.0444    0.5123   20.1887 H   0  0  0  0  0  0  0  0  0  0  0  0
    4.5075    4.0406   22.4793 H   0  0  0  0  0  0  0  0  0  0  0  0
    4.3486    3.9671   22.3156 H   0  0  0  0  0  0  0  0  0  0  0  0
    6.9177    0.0723   18.0309 H   0  0  0  0  0  0  0  0  0  0  0  0
    8.0777   -0.1614   15.8023 H   0  0  0  0  0  0  0  0  0  0  0  0
    9.9676    1.3416   14.2227 H   0  0  0  0  0  0  0  0  0  0  0  0
   10.9485    3.6935   14.3425 H   0  0  0  0  0  0  0  0  0  0  0  0
    8.6733    3.8345   18.7605 H   0  0  0  0  0  0  0  0  0  0  0  0
  1  2  1  0
  2  3  1  0
  3  4  2  0
  3  5  1  0
  5  6  1  0
  5  7  2  0
  2  8  1  0
  8  9  2  0
  9 10  1  0
 10 11  2  0
 11 12  1  0
 12 13  1  0
 13 14  2  0
 14 15  1  0
 15 16  2  0
 16  8  1  0
 15 11  1  0
  1 17  1  0
  1 18  1  0
  1 19  1  0
  6 20  1  0
  6 21  1  0
  9 22  1  0
 10 23  1  0
 12 24  1  0
 13 25  1  0
 16 26  1  0
M  END
>  <Energy>  (4) 
489.86990132005889

>  <compound_id>  (4) 
46070

>  <target_id>  (4) 
1

>  <reference_id>  (4) 
13

>  <inspiration_ids>  (4) 
[55, 13]

>  <energy_score>  (4) 
409.1716580714691

>  <distance_score>  (4) 
8.460543072082412

>  <path>  (4) 
/opt/xchem-fragalysis-2/maxwin/BulkDock/SCRATCH/511023/C46070-P13/C46070-P13.minimised.mol

>  <scratch_subdir>  (4) 
/opt/xchem-fragalysis-2/maxwin/BulkDock/SCRATCH/511023/C46070-P13

>  <fragmenstein_runtime>  (4) 
5.595763444900513

>  <fragmenstein_outcome>  (4) 
too moved

>  <fragmenstein_mode>  (4) 
expansion

>  <fragmenstein_error>  (4) 


$$$$
C46073-P55
     RDKit          3D

 38 39  0  0  0  0  0  0  0  0999 V2000
    3.0619   -1.3992   28.4739 C   0  0  0  0  0  0  0  0  0  0  0  0
    3.1438   -1.0654   26.9892 C   0  0  0  0  0  0  0  0  0  0  0  0
    4.2222   -1.8758   26.2366 C   0  0  0  0  0  0  0  0  0  0  0  0
    4.2428   -1.6329   24.7001 C   0  0  0  0  0  0  0  0  0  0  0  0
    5.4368   -2.0147   23.8912 O   0  0  0  0  0  0  0  0  0  0  0  0
    5.4714   -1.6662   22.2359 C   0  0  0  0  0  0  0  0  0  0  0  0
    5.9683   -0.1438   21.2288 C   0  0  0  0  0  0  0  0  0  0  0  0
    4.6920    0.5317   21.5616 O   0  0  0  0  0  0  0  0  0  0  0  0
    7.1230   -0.0865   19.5049 C   0  0  0  0  0  0  0  0  0  0  0  0
    7.9709    0.6829   18.0018 N   0  0  0  0  0  0  0  0  0  0  0  0
    7.9476    1.9426   17.3366 C   0  0  0  0  0  0  0  0  0  0  0  0
    7.8174    1.6313   16.0311 N   0  0  0  0  0  0  0  0  0  0  0  0
    8.1658    0.2738   15.9285 C   0  0  0  0  0  0  0  0  0  0  0  0
    8.2761   -0.8120   15.0468 C   0  0  0  0  0  0  0  0  0  0  0  0
    9.4905   -1.5229   15.1490 C   0  0  0  0  0  0  0  0  0  0  0  0
   10.5497   -0.8625   15.7212 C   0  0  0  0  0  0  0  0  0  0  0  0
   10.2024    0.2290   16.4904 C   0  0  0  0  0  0  0  0  0  0  0  0
    8.9008    0.1011   17.0534 C   0  0  0  0  0  0  0  0  0  0  0  0
    4.0134   -1.1884   28.9720 H   0  0  0  0  0  0  0  0  0  0  0  0
    2.2823   -0.8013   28.9558 H   0  0  0  0  0  0  0  0  0  0  0  0
    2.8229   -2.4571   28.6225 H   0  0  0  0  0  0  0  0  0  0  0  0
    2.1666   -1.2715   26.5563 H   0  0  0  0  0  0  0  0  0  0  0  0
    3.3396    0.0059   26.8680 H   0  0  0  0  0  0  0  0  0  0  0  0
    5.2076   -1.6460   26.6564 H   0  0  0  0  0  0  0  0  0  0  0  0
    4.0015   -2.9214   26.4214 H   0  0  0  0  0  0  0  0  0  0  0  0
    3.3951   -2.1389   24.2490 H   0  0  0  0  0  0  0  0  0  0  0  0
    4.1675   -0.5521   24.6702 H   0  0  0  0  0  0  0  0  0  0  0  0
    4.5120   -1.3176   22.4338 H   0  0  0  0  0  0  0  0  0  0  0  0
    5.5987   -2.5722   21.6433 H   0  0  0  0  0  0  0  0  0  0  0  0
    6.3128    0.7663   21.6895 H   0  0  0  0  0  0  0  0  0  0  0  0
    4.3455    0.5321   22.4812 H   0  0  0  0  0  0  0  0  0  0  0  0
    6.6312   -0.6701   18.7420 H   0  0  0  0  0  0  0  0  0  0  0  0
    7.9817   -0.6530   19.8143 H   0  0  0  0  0  0  0  0  0  0  0  0
    7.6903    2.8844   17.7954 H   0  0  0  0  0  0  0  0  0  0  0  0
    7.6300   -1.0035   14.2002 H   0  0  0  0  0  0  0  0  0  0  0  0
    9.6759   -2.4163   14.5697 H   0  0  0  0  0  0  0  0  0  0  0  0
   11.5712   -1.0860   15.4391 H   0  0  0  0  0  0  0  0  0  0  0  0
   10.8525    1.0918   16.5947 H   0  0  0  0  0  0  0  0  0  0  0  0
  1  2  1  0
  2  3  1  0
  3  4  1  0
  4  5  1  0
  5  6  1  0
  6  7  1  0
  7  8  1  0
  7  9  1  0
  9 10  1  0
 10 11  1  0
 11 12  2  0
 12 13  1  0
 13 14  2  0
 14 15  1  0
 15 16  2  0
 16 17  1  0
 17 18  2  0
 18 10  1  0
 18 13  1  0
  1 19  1  0
  1 20  1  0
  1 21  1  0
  2 22  1  0
  2 23  1  0
  3 24  1  0
  3 25  1  0
  4 26  1  0
  4 27  1  0
  6 28  1  0
  6 29  1  0
  7 30  1  0
  8 31  1  0
  9 32  1  0
  9 33  1  0
 11 34  1  0
 14 35  1  0
 15 36  1  0
 16 37  1  0
 17 38  1  0
M  END
>  <Energy>  (5) 
500.15825688054025

>  <compound_id>  (5) 
46073

>  <target_id>  (5) 
1

>  <reference_id>  (5) 
55

>  <inspiration_ids>  (5) 
[55, 13]

>  <energy_score>  (5) 
435.85100101399064

>  <distance_score>  (5) 
6.387933609530409

>  <path>  (5) 
/opt/xchem-fragalysis-2/maxwin/BulkDock/SCRATCH/511023/C46073-P55/C46073-P55.minimised.mol

>  <scratch_subdir>  (5) 
/opt/xchem-fragalysis-2/maxwin/BulkDock/SCRATCH/511023/C46073-P55

>  <fragmenstein_runtime>  (5) 
10.278818130493164

>  <fragmenstein_outcome>  (5) 
too moved

>  <fragmenstein_mode>  (5) 
expansion

>  <fragmenstein_error>  (5) 


$$$$
C46073-P13
     RDKit          3D

 38 39  0  0  0  0  0  0  0  0999 V2000
    2.6819   -3.5385   28.0581 C   0  0  0  0  0  0  0  0  0  0  0  0
    4.2003   -3.4455   27.9887 C   0  0  0  0  0  0  0  0  0  0  0  0
    4.7450   -2.9902   26.6248 C   0  0  0  0  0  0  0  0  0  0  0  0
    5.1777   -4.1012   25.6348 C   0  0  0  0  0  0  0  0  0  0  0  0
    5.5685   -3.4668   24.3848 O   0  0  0  0  0  0  0  0  0  0  0  0
    6.4194   -4.3729   23.2738 C   0  0  0  0  0  0  0  0  0  0  0  0
    7.0738   -3.3256   21.6351 C   0  0  0  0  0  0  0  0  0  0  0  0
    5.7358   -2.7955   20.9315 O   0  0  0  0  0  0  0  0  0  0  0  0
    8.9040   -2.9585   20.6295 C   0  0  0  0  0  0  0  0  0  0  0  0
    8.3452   -1.2121   19.4450 N   0  0  0  0  0  0  0  0  0  0  0  0
    7.4133   -0.2321   19.7870 C   0  0  0  0  0  0  0  0  0  0  0  0
    7.6757    1.0458   19.5908 N   0  0  0  0  0  0  0  0  0  0  0  0
    8.2864    1.1595   18.4440 C   0  0  0  0  0  0  0  0  0  0  0  0
    8.6266    2.2663   17.6563 C   0  0  0  0  0  0  0  0  0  0  0  0
    9.1443    2.0650   16.3714 C   0  0  0  0  0  0  0  0  0  0  0  0
    9.3127    0.7842   15.8716 C   0  0  0  0  0  0  0  0  0  0  0  0
    9.0183   -0.3205   16.6684 C   0  0  0  0  0  0  0  0  0  0  0  0
    8.5233   -0.1160   18.0325 C   0  0  0  0  0  0  0  0  0  0  0  0
    2.3660   -3.8154   29.0688 H   0  0  0  0  0  0  0  0  0  0  0  0
    2.2158   -2.5813   27.8079 H   0  0  0  0  0  0  0  0  0  0  0  0
    2.3188   -4.3060   27.3710 H   0  0  0  0  0  0  0  0  0  0  0  0
    4.5185   -2.7163   28.7441 H   0  0  0  0  0  0  0  0  0  0  0  0
    4.6466   -4.4056   28.2712 H   0  0  0  0  0  0  0  0  0  0  0  0
    4.0482   -2.3028   26.1398 H   0  0  0  0  0  0  0  0  0  0  0  0
    5.6414   -2.3815   26.8091 H   0  0  0  0  0  0  0  0  0  0  0  0
    6.0257   -4.6548   26.0498 H   0  0  0  0  0  0  0  0  0  0  0  0
    4.3542   -4.7939   25.4477 H   0  0  0  0  0  0  0  0  0  0  0  0
    6.9386   -4.7930   24.1036 H   0  0  0  0  0  0  0  0  0  0  0  0
    6.1039   -5.4309   23.1695 H   0  0  0  0  0  0  0  0  0  0  0  0
    6.7718   -2.8559   22.4956 H   0  0  0  0  0  0  0  0  0  0  0  0
    5.9308   -2.5142   20.0191 H   0  0  0  0  0  0  0  0  0  0  0  0
    8.7680   -3.7927   19.8867 H   0  0  0  0  0  0  0  0  0  0  0  0
    8.1263   -3.9268   20.4723 H   0  0  0  0  0  0  0  0  0  0  0  0
    6.6676   -0.5946   20.4323 H   0  0  0  0  0  0  0  0  0  0  0  0
    8.4388    3.2671   18.0282 H   0  0  0  0  0  0  0  0  0  0  0  0
    9.3796    2.9269   15.7533 H   0  0  0  0  0  0  0  0  0  0  0  0
    9.6703    0.6366   14.8541 H   0  0  0  0  0  0  0  0  0  0  0  0
    9.1956   -1.2952   16.2344 H   0  0  0  0  0  0  0  0  0  0  0  0
  1  2  1  0
  2  3  1  0
  3  4  1  0
  4  5  1  0
  5  6  1  0
  6  7  1  0
  7  8  1  0
  7  9  1  0
  9 10  1  0
 10 11  1  0
 11 12  2  0
 12 13  1  0
 13 14  2  0
 14 15  1  0
 15 16  2  0
 16 17  1  0
 17 18  2  0
 18 10  1  0
 18 13  1  0
  1 19  1  0
  1 20  1  0
  1 21  1  0
  2 22  1  0
  2 23  1  0
  3 24  1  0
  3 25  1  0
  4 26  1  0
  4 27  1  0
  6 28  1  0
  6 29  1  0
  7 30  1  0
  8 31  1  0
  9 32  1  0
  9 33  1  0
 11 34  1  0
 14 35  1  0
 15 36  1  0
 16 37  1  0
 17 38  1  0
M  END
>  <Energy>  (6) 
759.98851932783907

>  <compound_id>  (6) 
46073

>  <target_id>  (6) 
1

>  <reference_id>  (6) 
13

>  <inspiration_ids>  (6) 
[55, 13]

>  <energy_score>  (6) 
695.6812634612867

>  <distance_score>  (6) 
7.23878803040675

>  <path>  (6) 
/opt/xchem-fragalysis-2/maxwin/BulkDock/SCRATCH/511023/C46073-P13/C46073-P13.minimised.mol

>  <scratch_subdir>  (6) 
/opt/xchem-fragalysis-2/maxwin/BulkDock/SCRATCH/511023/C46073-P13

>  <fragmenstein_runtime>  (6) 
8.869128465652466

>  <fragmenstein_outcome>  (6) 
too moved

>  <fragmenstein_mode>  (6) 
expansion

>  <fragmenstein_error>  (6) 


$$$$
C46084-P55
     RDKit          3D

 42 43  0  0  0  0  0  0  0  0999 V2000
    7.0052   -0.3689   18.6896 N   0  0  0  0  0  0  0  0  0  0  0  0
    7.1816   -0.3285   20.2276 S   0  0  0  0  0  0  0  0  0  0  0  0
    7.5415    1.0618   20.5093 O   0  0  0  0  0  0  0  0  0  0  0  0
    8.3062   -1.1198   19.9797 O   0  0  0  0  0  0  0  0  0  0  0  0
    5.6888   -1.2371   21.7245 C   0  0  0  0  0  0  0  0  0  0  0  0
    5.1420   -1.8973   23.4277 C   0  0  0  0  0  0  0  0  0  0  0  0
    4.8538   -1.6136   24.9787 C   0  0  0  0  0  0  0  0  0  0  0  0
    3.8484   -0.7227   25.6897 C   0  0  0  0  0  0  0  0  0  0  0  0
    4.1412   -0.7439   27.2020 C   0  0  0  0  0  0  0  0  0  0  0  0
    2.9018   -0.7091   28.0059 C   0  0  0  0  0  0  0  0  0  0  0  0
    3.1285   -0.2701   29.5431 O   0  0  0  0  0  0  0  0  0  0  0  0
    1.8454   -0.9231   27.9779 N   0  0  0  0  0  0  0  0  0  0  0  0
    0.5694   -0.8660   28.8045 C   0  0  0  0  0  0  0  0  0  0  0  0
   -0.1932    0.3881   28.4354 C   0  0  0  0  0  0  0  0  0  0  0  0
    0.3213    1.6464   28.7939 C   0  0  0  0  0  0  0  0  0  0  0  0
   -0.2664    2.8369   28.3542 C   0  0  0  0  0  0  0  0  0  0  0  0
   -1.3739    2.7081   27.5183 C   0  0  0  0  0  0  0  0  0  0  0  0
   -2.1937    3.6295   26.9162 N   0  0  0  0  0  0  0  0  0  0  0  0
   -3.1050    2.9442   26.1626 C   0  0  0  0  0  0  0  0  0  0  0  0
   -2.9377    1.6442   26.2592 N   0  0  0  0  0  0  0  0  0  0  0  0
   -1.8974    1.4814   27.1326 C   0  0  0  0  0  0  0  0  0  0  0  0
   -1.3310    0.2994   27.6229 C   0  0  0  0  0  0  0  0  0  0  0  0
    7.1905    0.5220   18.2341 H   0  0  0  0  0  0  0  0  0  0  0  0
    6.1013   -0.7638   18.4517 H   0  0  0  0  0  0  0  0  0  0  0  0
    5.0176   -0.3710   21.6853 H   0  0  0  0  0  0  0  0  0  0  0  0
    5.6661   -2.2468   21.2705 H   0  0  0  0  0  0  0  0  0  0  0  0
    5.9642   -2.5255   23.6675 H   0  0  0  0  0  0  0  0  0  0  0  0
    4.1615   -2.3273   23.2519 H   0  0  0  0  0  0  0  0  0  0  0  0
    4.4244   -2.5842   25.2684 H   0  0  0  0  0  0  0  0  0  0  0  0
    5.7985   -1.5875   25.5337 H   0  0  0  0  0  0  0  0  0  0  0  0
    2.8621   -1.1330   25.5019 H   0  0  0  0  0  0  0  0  0  0  0  0
    3.8571    0.3019   25.3420 H   0  0  0  0  0  0  0  0  0  0  0  0
    4.6739   -1.6545   27.4997 H   0  0  0  0  0  0  0  0  0  0  0  0
    4.7631    0.1181   27.4652 H   0  0  0  0  0  0  0  0  0  0  0  0
    1.0086   -1.2570   27.5604 H   0  0  0  0  0  0  0  0  0  0  0  0
   -0.0473   -1.7843   28.7305 H   0  0  0  0  0  0  0  0  0  0  0  0
    0.8511   -0.7972   29.8630 H   0  0  0  0  0  0  0  0  0  0  0  0
    1.2224    1.7022   29.4078 H   0  0  0  0  0  0  0  0  0  0  0  0
    0.1338    3.8052   28.6367 H   0  0  0  0  0  0  0  0  0  0  0  0
   -2.1528    4.6340   27.0269 H   0  0  0  0  0  0  0  0  0  0  0  0
   -3.8647    3.4448   25.5760 H   0  0  0  0  0  0  0  0  0  0  0  0
   -1.7549   -0.6541   27.3329 H   0  0  0  0  0  0  0  0  0  0  0  0
  1  2  1  0
  2  3  2  0
  2  4  2  0
  2  5  1  0
  5  6  1  0
  6  7  1  0
  7  8  1  0
  8  9  1  0
  9 10  1  0
 10 11  2  0
 10 12  1  0
 12 13  1  0
 13 14  1  0
 14 15  2  0
 15 16  1  0
 16 17  2  0
 17 18  1  0
 18 19  1  0
 19 20  2  0
 20 21  1  0
 21 22  2  0
 22 14  1  0
 21 17  1  0
  1 23  1  0
  1 24  1  0
  5 25  1  0
  5 26  1  0
  6 27  1  0
  6 28  1  0
  7 29  1  0
  7 30  1  0
  8 31  1  0
  8 32  1  0
  9 33  1  0
  9 34  1  0
 12 35  1  0
 13 36  1  0
 13 37  1  0
 15 38  1  0
 16 39  1  0
 18 40  1  0
 19 41  1  0
 22 42  1  0
M  END
>  <Energy>  (7) 
356.17088371379288

>  <compound_id>  (7) 
46084

>  <target_id>  (7) 
1

>  <reference_id>  (7) 
55

>  <inspiration_ids>  (7) 
[55, 13]

>  <energy_score>  (7) 
413.63836566754185

>  <distance_score>  (7) 
4.4939522762029664

>  <path>  (7) 
/opt/xchem-fragalysis-2/maxwin/BulkDock/SCRATCH/511023/C46084-P55/C46084-P55.minimised.mol

>  <scratch_subdir>  (7) 
/opt/xchem-fragalysis-2/maxwin/BulkDock/SCRATCH/511023/C46084-P55

>  <fragmenstein_runtime>  (7) 
21.10495114326477

>  <fragmenstein_outcome>  (7) 
too moved

>  <fragmenstein_mode>  (7) 
expansion

>  <fragmenstein_error>  (7) 


$$$$
C46084-P13
     RDKit          3D

 42 43  0  0  0  0  0  0  0  0999 V2000
    6.7683   -0.0938   18.2248 N   0  0  0  0  0  0  0  0  0  0  0  0
    7.0022    0.0376   19.8035 S   0  0  0  0  0  0  0  0  0  0  0  0
    7.4376    1.4350   19.7581 O   0  0  0  0  0  0  0  0  0  0  0  0
    8.1849   -0.7494   19.7845 O   0  0  0  0  0  0  0  0  0  0  0  0
    5.3294   -0.7951   21.3137 C   0  0  0  0  0  0  0  0  0  0  0  0
    4.8237   -1.2251   23.1779 C   0  0  0  0  0  0  0  0  0  0  0  0
    4.8179   -0.1355   24.4945 C   0  0  0  0  0  0  0  0  0  0  0  0
    4.0241   -0.4077   25.7895 C   0  0  0  0  0  0  0  0  0  0  0  0
    4.4023   -1.6905   26.5383 C   0  0  0  0  0  0  0  0  0  0  0  0
    3.2570   -2.2750   27.3865 C   0  0  0  0  0  0  0  0  0  0  0  0
    3.0082   -3.4432   27.2883 O   0  0  0  0  0  0  0  0  0  0  0  0
    2.6163   -1.2431   28.1435 N   0  0  0  0  0  0  0  0  0  0  0  0
    1.4215   -1.2633   28.9456 C   0  0  0  0  0  0  0  0  0  0  0  0
    0.5573   -0.0716   28.6122 C   0  0  0  0  0  0  0  0  0  0  0  0
    0.9148    1.2127   29.0583 C   0  0  0  0  0  0  0  0  0  0  0  0
    0.1770    2.3526   28.7077 C   0  0  0  0  0  0  0  0  0  0  0  0
   -0.9294    2.1559   27.8799 C   0  0  0  0  0  0  0  0  0  0  0  0
   -1.8707    3.0160   27.3682 N   0  0  0  0  0  0  0  0  0  0  0  0
   -2.7281    2.2854   26.5941 C   0  0  0  0  0  0  0  0  0  0  0  0
   -2.4105    1.0112   26.5889 N   0  0  0  0  0  0  0  0  0  0  0  0
   -1.3138    0.9065   27.4088 C   0  0  0  0  0  0  0  0  0  0  0  0
   -0.5764   -0.2255   27.7920 C   0  0  0  0  0  0  0  0  0  0  0  0
    5.8595   -0.5059   18.0408 H   0  0  0  0  0  0  0  0  0  0  0  0
    6.8926    0.8146   17.7721 H   0  0  0  0  0  0  0  0  0  0  0  0
    4.5823    0.0345   21.3260 H   0  0  0  0  0  0  0  0  0  0  0  0
    5.4319   -1.8784   20.9152 H   0  0  0  0  0  0  0  0  0  0  0  0
    5.3300   -2.1442   23.5218 H   0  0  0  0  0  0  0  0  0  0  0  0
    3.8354   -1.6957   23.1874 H   0  0  0  0  0  0  0  0  0  0  0  0
    4.5059    0.8554   24.1499 H   0  0  0  0  0  0  0  0  0  0  0  0
    5.8145    0.0121   24.9216 H   0  0  0  0  0  0  0  0  0  0  0  0
    2.9607   -0.2943   25.6077 H   0  0  0  0  0  0  0  0  0  0  0  0
    4.2497    0.4337   26.4621 H   0  0  0  0  0  0  0  0  0  0  0  0
    4.6942   -2.4661   25.8209 H   0  0  0  0  0  0  0  0  0  0  0  0
    5.2624   -1.5162   27.1946 H   0  0  0  0  0  0  0  0  0  0  0  0
    3.1481   -0.3890   28.0516 H   0  0  0  0  0  0  0  0  0  0  0  0
    0.8918   -2.2068   28.7765 H   0  0  0  0  0  0  0  0  0  0  0  0
    1.7197   -1.2317   29.9989 H   0  0  0  0  0  0  0  0  0  0  0  0
    1.7922    1.3391   29.6910 H   0  0  0  0  0  0  0  0  0  0  0  0
    0.4534    3.3396   29.0644 H   0  0  0  0  0  0  0  0  0  0  0  0
   -1.9455    4.0071   27.5548 H   0  0  0  0  0  0  0  0  0  0  0  0
   -3.5640    2.7347   26.0738 H   0  0  0  0  0  0  0  0  0  0  0  0
   -0.8822   -1.1989   27.4216 H   0  0  0  0  0  0  0  0  0  0  0  0
  1  2  1  0
  2  3  2  0
  2  4  2  0
  2  5  1  0
  5  6  1  0
  6  7  1  0
  7  8  1  0
  8  9  1  0
  9 10  1  0
 10 11  2  0
 10 12  1  0
 12 13  1  0
 13 14  1  0
 14 15  2  0
 15 16  1  0
 16 17  2  0
 17 18  1  0
 18 19  1  0
 19 20  2  0
 20 21  1  0
 21 22  2  0
 22 14  1  0
 21 17  1  0
  1 23  1  0
  1 24  1  0
  5 25  1  0
  5 26  1  0
  6 27  1  0
  6 28  1  0
  7 29  1  0
  7 30  1  0
  8 31  1  0
  8 32  1  0
  9 33  1  0
  9 34  1  0
 12 35  1  0
 13 36  1  0
 13 37  1  0
 15 38  1  0
 16 39  1  0
 18 40  1  0
 19 41  1  0
 22 42  1  0
M  END
>  <Energy>  (8) 
148.07693857909763

>  <compound_id>  (8) 
46084

>  <target_id>  (8) 
1

>  <reference_id>  (8) 
13

>  <inspiration_ids>  (8) 
[55, 13]

>  <energy_score>  (8) 
205.54442053284873

>  <distance_score>  (8) 
4.5384265197133145

>  <path>  (8) 
/opt/xchem-fragalysis-2/maxwin/BulkDock/SCRATCH/511023/C46084-P13/C46084-P13.minimised.mol

>  <scratch_subdir>  (8) 
/opt/xchem-fragalysis-2/maxwin/BulkDock/SCRATCH/511023/C46084-P13

>  <fragmenstein_runtime>  (8) 
18.107198476791382

>  <fragmenstein_outcome>  (8) 
too moved

>  <fragmenstein_mode>  (8) 
expansion

>  <fragmenstein_error>  (8) 


$$$$
C46088-P55
     RDKit          3D

 25 26  0  0  0  0  0  0  0  0999 V2000
    5.6976   -1.5110   21.8330 O   0  0  0  0  0  0  0  0  0  0  0  0
    6.6367   -2.0065   20.8033 C   0  0  0  0  0  0  0  0  0  0  0  0
    7.7914   -3.6125   21.2854 C   0  0  0  0  0  0  0  0  0  0  0  0
    7.7997   -4.7380   20.3905 F   0  0  0  0  0  0  0  0  0  0  0  0
    7.3972   -0.6588   19.4614 C   0  0  0  0  0  0  0  0  0  0  0  0
    8.0107   -0.1767   17.7810 N   0  0  0  0  0  0  0  0  0  0  0  0
    7.4135   -0.2115   16.5224 C   0  0  0  0  0  0  0  0  0  0  0  0
    7.6637    0.9961   15.9812 N   0  0  0  0  0  0  0  0  0  0  0  0
    8.8595    1.4086   16.4131 C   0  0  0  0  0  0  0  0  0  0  0  0
    9.7407    2.3158   15.8135 C   0  0  0  0  0  0  0  0  0  0  0  0
   10.9966    1.8109   15.4574 C   0  0  0  0  0  0  0  0  0  0  0  0
   11.2748    0.4616   15.6398 C   0  0  0  0  0  0  0  0  0  0  0  0
   10.3748   -0.3466   16.3475 C   0  0  0  0  0  0  0  0  0  0  0  0
    9.2865    0.2904   17.0782 C   0  0  0  0  0  0  0  0  0  0  0  0
    5.4931   -0.6089   21.5316 H   0  0  0  0  0  0  0  0  0  0  0  0
    5.8331   -2.7312   20.4263 H   0  0  0  0  0  0  0  0  0  0  0  0
    8.8242   -3.5552   21.0408 H   0  0  0  0  0  0  0  0  0  0  0  0
    7.5793   -3.9884   22.3079 H   0  0  0  0  0  0  0  0  0  0  0  0
    8.3799   -0.6891   19.8405 H   0  0  0  0  0  0  0  0  0  0  0  0
    7.0568    0.3202   19.7010 H   0  0  0  0  0  0  0  0  0  0  0  0
    6.6171   -0.8676   16.2035 H   0  0  0  0  0  0  0  0  0  0  0  0
    9.3844    3.2408   15.3754 H   0  0  0  0  0  0  0  0  0  0  0  0
   11.6818    2.4325   14.8870 H   0  0  0  0  0  0  0  0  0  0  0  0
   12.1564    0.0208   15.1817 H   0  0  0  0  0  0  0  0  0  0  0  0
   10.5405   -1.4191   16.3333 H   0  0  0  0  0  0  0  0  0  0  0  0
  1  2  1  0
  2  3  1  0
  3  4  1  0
  2  5  1  0
  5  6  1  0
  6  7  1  0
  7  8  2  0
  8  9  1  0
  9 10  2  0
 10 11  1  0
 11 12  2  0
 12 13  1  0
 13 14  2  0
 14  6  1  0
 14  9  1  0
  1 15  1  0
  2 16  1  0
  3 17  1  0
  3 18  1  0
  5 19  1  0
  5 20  1  0
  7 21  1  0
 10 22  1  0
 11 23  1  0
 12 24  1  0
 13 25  1  0
M  END
>  <Energy>  (9) 
386.31916379380937

>  <compound_id>  (9) 
46088

>  <target_id>  (9) 
1

>  <reference_id>  (9) 
55

>  <inspiration_ids>  (9) 
[55, 13]

>  <energy_score>  (9) 
333.4274059321492

>  <distance_score>  (9) 
7.994303697672373

>  <path>  (9) 
/opt/xchem-fragalysis-2/maxwin/BulkDock/SCRATCH/511023/C46088-P55/C46088-P55.minimised.mol

>  <scratch_subdir>  (9) 
/opt/xchem-fragalysis-2/maxwin/BulkDock/SCRATCH/511023/C46088-P55

>  <fragmenstein_runtime>  (9) 
3.829145669937134

>  <fragmenstein_outcome>  (9) 
too moved

>  <fragmenstein_mode>  (9) 
expansion

>  <fragmenstein_error>  (9) 


$$$$
C46088-P13
     RDKit          3D

 25 26  0  0  0  0  0  0  0  0999 V2000
    6.7102   -2.9761   21.3158 O   0  0  0  0  0  0  0  0  0  0  0  0
    5.6848   -1.9327   20.8476 C   0  0  0  0  0  0  0  0  0  0  0  0
    4.8878   -1.8315   22.7505 C   0  0  0  0  0  0  0  0  0  0  0  0
    5.5792   -2.5540   23.6820 F   0  0  0  0  0  0  0  0  0  0  0  0
    6.9542   -0.5725   19.9049 C   0  0  0  0  0  0  0  0  0  0  0  0
    7.3550    0.4547   18.6350 N   0  0  0  0  0  0  0  0  0  0  0  0
    7.9302    1.6889   19.0004 C   0  0  0  0  0  0  0  0  0  0  0  0
    8.8501    2.1572   18.2074 N   0  0  0  0  0  0  0  0  0  0  0  0
    8.8742    1.3051   17.1737 C   0  0  0  0  0  0  0  0  0  0  0  0
    9.7286    1.3125   16.0587 C   0  0  0  0  0  0  0  0  0  0  0  0
    9.5375    0.3749   15.0561 C   0  0  0  0  0  0  0  0  0  0  0  0
    8.4045   -0.4152   15.0938 C   0  0  0  0  0  0  0  0  0  0  0  0
    7.5041   -0.3370   16.1516 C   0  0  0  0  0  0  0  0  0  0  0  0
    7.8488    0.3653   17.3085 C   0  0  0  0  0  0  0  0  0  0  0  0
    6.7616   -3.5020   20.4881 H   0  0  0  0  0  0  0  0  0  0  0  0
    5.3636   -0.9227   21.2364 H   0  0  0  0  0  0  0  0  0  0  0  0
    3.8248   -2.0559   22.9618 H   0  0  0  0  0  0  0  0  0  0  0  0
    4.8794   -0.7970   23.1018 H   0  0  0  0  0  0  0  0  0  0  0  0
    6.4051    0.2983   20.2297 H   0  0  0  0  0  0  0  0  0  0  0  0
    7.9513   -0.4513   20.1891 H   0  0  0  0  0  0  0  0  0  0  0  0
    7.6550    2.1807   19.8996 H   0  0  0  0  0  0  0  0  0  0  0  0
   10.5163    2.0536   15.9872 H   0  0  0  0  0  0  0  0  0  0  0  0
   10.1929    0.3489   14.1903 H   0  0  0  0  0  0  0  0  0  0  0  0
    8.1265   -1.0270   14.2419 H   0  0  0  0  0  0  0  0  0  0  0  0
    6.5321   -0.7853   16.0327 H   0  0  0  0  0  0  0  0  0  0  0  0
  1  2  1  0
  2  3  1  0
  3  4  1  0
  2  5  1  0
  5  6  1  0
  6  7  1  0
  7  8  2  0
  8  9  1  0
  9 10  2  0
 10 11  1  0
 11 12  2  0
 12 13  1  0
 13 14  2  0
 14  6  1  0
 14  9  1  0
  1 15  1  0
  2 16  1  0
  3 17  1  0
  3 18  1  0
  5 19  1  0
  5 20  1  0
  7 21  1  0
 10 22  1  0
 11 23  1  0
 12 24  1  0
 13 25  1  0
M  END
>  <Energy>  (10) 
356.83577608646931

>  <compound_id>  (10) 
46088

>  <target_id>  (10) 
1

>  <reference_id>  (10) 
13

>  <inspiration_ids>  (10) 
[55, 13]

>  <energy_score>  (10) 
303.94401822480495

>  <distance_score>  (10) 
7.907879486681394

>  <path>  (10) 
/opt/xchem-fragalysis-2/maxwin/BulkDock/SCRATCH/511023/C46088-P13/C46088-P13.minimised.mol

>  <scratch_subdir>  (10) 
/opt/xchem-fragalysis-2/maxwin/BulkDock/SCRATCH/511023/C46088-P13

>  <fragmenstein_runtime>  (10) 
3.897045850753784

>  <fragmenstein_outcome>  (10) 
too moved

>  <fragmenstein_mode>  (10) 
expansion

>  <fragmenstein_error>  (10) 


$$$$
C46089-P55
     RDKit          3D

 32 33  0  0  0  0  0  0  0  0999 V2000
    3.0463    0.2874   27.4363 C   0  0  0  0  0  0  0  0  0  0  0  0
    3.6797   -0.9147   26.7531 C   0  0  0  0  0  0  0  0  0  0  0  0
    4.2552   -0.5495   25.4793 O   0  0  0  0  0  0  0  0  0  0  0  0
    5.1222   -1.6016   24.9814 C   0  0  0  0  0  0  0  0  0  0  0  0
    5.3531   -1.8953   23.2049 C   0  0  0  0  0  0  0  0  0  0  0  0
    3.9664   -2.2953   23.3090 O   0  0  0  0  0  0  0  0  0  0  0  0
    6.1569   -1.1151   21.4769 C   0  0  0  0  0  0  0  0  0  0  0  0
    7.5615   -0.5779   20.2095 N   0  0  0  0  0  0  0  0  0  0  0  0
    7.2242   -0.0333   18.7158 C   0  0  0  0  0  0  0  0  0  0  0  0
    8.1392    0.1058   17.6833 N   0  0  0  0  0  0  0  0  0  0  0  0
    9.5110    0.1136   18.0911 C   0  0  0  0  0  0  0  0  0  0  0  0
   11.2031   -0.4133   17.2598 C   0  0  0  0  0  0  0  0  0  0  0  0
   12.7533   -0.1905   18.3626 C   0  0  0  0  0  0  0  0  0  0  0  0
   12.7923   -0.1189   20.2908 C   0  0  0  0  0  0  0  0  0  0  0  0
   11.0170    0.2122   21.1183 C   0  0  0  0  0  0  0  0  0  0  0  0
    9.3565   -0.4741   20.0264 C   0  0  0  0  0  0  0  0  0  0  0  0
    3.8090    1.0459   27.6422 H   0  0  0  0  0  0  0  0  0  0  0  0
    2.2984    0.7653   26.8010 H   0  0  0  0  0  0  0  0  0  0  0  0
    2.5780   -0.0043   28.3804 H   0  0  0  0  0  0  0  0  0  0  0  0
    4.4629   -1.3207   27.4041 H   0  0  0  0  0  0  0  0  0  0  0  0
    2.9214   -1.6867   26.5879 H   0  0  0  0  0  0  0  0  0  0  0  0
    6.0580   -1.6321   25.5517 H   0  0  0  0  0  0  0  0  0  0  0  0
    4.5753   -2.5004   25.2913 H   0  0  0  0  0  0  0  0  0  0  0  0
    6.0727   -2.6262   23.4884 H   0  0  0  0  0  0  0  0  0  0  0  0
    3.4903   -1.5158   23.6747 H   0  0  0  0  0  0  0  0  0  0  0  0
    6.0934   -2.1166   21.0039 H   0  0  0  0  0  0  0  0  0  0  0  0
    5.6252   -0.1590   21.3829 H   0  0  0  0  0  0  0  0  0  0  0  0
    6.1784    0.1147   18.5173 H   0  0  0  0  0  0  0  0  0  0  0  0
   11.2407   -0.3323   16.1742 H   0  0  0  0  0  0  0  0  0  0  0  0
   13.7235   -0.2225   17.8575 H   0  0  0  0  0  0  0  0  0  0  0  0
   13.7096    0.0711   20.8429 H   0  0  0  0  0  0  0  0  0  0  0  0
   10.8786    0.4173   22.2099 H   0  0  0  0  0  0  0  0  0  0  0  0
  1  2  1  0
  2  3  1  0
  3  4  1  0
  4  5  1  0
  5  6  1  0
  5  7  1  0
  7  8  1  0
  8  9  1  0
  9 10  2  0
 10 11  1  0
 11 12  2  0
 12 13  1  0
 13 14  2  0
 14 15  1  0
 15 16  2  0
 16  8  1  0
 16 11  1  0
  1 17  1  0
  1 18  1  0
  1 19  1  0
  2 20  1  0
  2 21  1  0
  4 22  1  0
  4 23  1  0
  5 24  1  0
  6 25  1  0
  7 26  1  0
  7 27  1  0
  9 28  1  0
 12 29  1  0
 13 30  1  0
 14 31  1  0
 15 32  1  0
M  END
>  <Energy>  (11) 
1102.5164703005667

>  <compound_id>  (11) 
46089

>  <target_id>  (11) 
1

>  <reference_id>  (11) 
55

>  <inspiration_ids>  (11) 
[55, 13]

>  <energy_score>  (11) 
1038.7834832878652

>  <distance_score>  (11) 
6.129325388051811

>  <path>  (11) 
/opt/xchem-fragalysis-2/maxwin/BulkDock/SCRATCH/511023/C46089-P55/C46089-P55.minimised.mol

>  <scratch_subdir>  (11) 
/opt/xchem-fragalysis-2/maxwin/BulkDock/SCRATCH/511023/C46089-P55

>  <fragmenstein_runtime>  (11) 
6.398059129714966

>  <fragmenstein_outcome>  (11) 
too moved

>  <fragmenstein_mode>  (11) 
expansion

>  <fragmenstein_error>  (11) 


$$$$
C46089-P13
     RDKit          3D

 32 33  0  0  0  0  0  0  0  0999 V2000
    3.8912   -0.2404   26.6086 C   0  0  0  0  0  0  0  0  0  0  0  0
    4.6981   -1.0730   25.6178 C   0  0  0  0  0  0  0  0  0  0  0  0
    4.7568   -0.4118   24.3442 O   0  0  0  0  0  0  0  0  0  0  0  0
    4.7636   -1.3179   23.1606 C   0  0  0  0  0  0  0  0  0  0  0  0
    5.2703   -0.7071   21.3598 C   0  0  0  0  0  0  0  0  0  0  0  0
    4.3517    0.5568   21.3513 O   0  0  0  0  0  0  0  0  0  0  0  0
    6.7226   -0.0441   20.0506 C   0  0  0  0  0  0  0  0  0  0  0  0
    6.7725    1.1284   19.0646 N   0  0  0  0  0  0  0  0  0  0  0  0
    6.9044    2.4392   19.4249 C   0  0  0  0  0  0  0  0  0  0  0  0
    7.8636    3.0762   18.7919 N   0  0  0  0  0  0  0  0  0  0  0  0
    8.2425    2.2347   17.7968 C   0  0  0  0  0  0  0  0  0  0  0  0
    9.2059    2.4035   16.7871 C   0  0  0  0  0  0  0  0  0  0  0  0
    9.3680    1.4192   15.8098 C   0  0  0  0  0  0  0  0  0  0  0  0
    8.4806    0.3572   15.7593 C   0  0  0  0  0  0  0  0  0  0  0  0
    7.4577    0.2421   16.7108 C   0  0  0  0  0  0  0  0  0  0  0  0
    7.4511    1.0911   17.8215 C   0  0  0  0  0  0  0  0  0  0  0  0
    2.8813   -0.0534   26.2390 H   0  0  0  0  0  0  0  0  0  0  0  0
    3.8309   -0.7419   27.5783 H   0  0  0  0  0  0  0  0  0  0  0  0
    4.3606    0.7393   26.7468 H   0  0  0  0  0  0  0  0  0  0  0  0
    5.7253   -1.1731   25.9847 H   0  0  0  0  0  0  0  0  0  0  0  0
    4.2907   -2.0833   25.5300 H   0  0  0  0  0  0  0  0  0  0  0  0
    3.7708   -1.7739   23.1613 H   0  0  0  0  0  0  0  0  0  0  0  0
    5.3412   -2.2092   23.4382 H   0  0  0  0  0  0  0  0  0  0  0  0
    5.3570   -1.7873   20.9315 H   0  0  0  0  0  0  0  0  0  0  0  0
    4.6683    1.2792   20.7720 H   0  0  0  0  0  0  0  0  0  0  0  0
    6.8419   -0.7868   19.2815 H   0  0  0  0  0  0  0  0  0  0  0  0
    7.7800   -0.2730   20.1756 H   0  0  0  0  0  0  0  0  0  0  0  0
    6.3198    2.8638   20.2096 H   0  0  0  0  0  0  0  0  0  0  0  0
    9.8099    3.3046   16.7778 H   0  0  0  0  0  0  0  0  0  0  0  0
   10.1195    1.5396   15.0342 H   0  0  0  0  0  0  0  0  0  0  0  0
    8.5144   -0.3325   14.9150 H   0  0  0  0  0  0  0  0  0  0  0  0
    6.6609   -0.4730   16.5595 H   0  0  0  0  0  0  0  0  0  0  0  0
  1  2  1  0
  2  3  1  0
  3  4  1  0
  4  5  1  0
  5  6  1  0
  5  7  1  0
  7  8  1  0
  8  9  1  0
  9 10  2  0
 10 11  1  0
 11 12  2  0
 12 13  1  0
 13 14  2  0
 14 15  1  0
 15 16  2  0
 16  8  1  0
 16 11  1  0
  1 17  1  0
  1 18  1  0
  1 19  1  0
  2 20  1  0
  2 21  1  0
  4 22  1  0
  4 23  1  0
  5 24  1  0
  6 25  1  0
  7 26  1  0
  7 27  1  0
  9 28  1  0
 12 29  1  0
 13 30  1  0
 14 31  1  0
 15 32  1  0
M  END
>  <Energy>  (12) 
279.24273384478744

>  <compound_id>  (12) 
46089

>  <target_id>  (12) 
1

>  <reference_id>  (12) 
13

>  <inspiration_ids>  (12) 
[55, 13]

>  <energy_score>  (12) 
215.50974683208904

>  <distance_score>  (12) 
7.343877698459089

>  <path>  (12) 
/opt/xchem-fragalysis-2/maxwin/BulkDock/SCRATCH/511023/C46089-P13/C46089-P13.minimised.mol

>  <scratch_subdir>  (12) 
/opt/xchem-fragalysis-2/maxwin/BulkDock/SCRATCH/511023/C46089-P13

>  <fragmenstein_runtime>  (12) 
6.829628229141235

>  <fragmenstein_outcome>  (12) 
too moved

>  <fragmenstein_mode>  (12) 
expansion

>  <fragmenstein_error>  (12) 


$$$$
C46090-P55
     RDKit          3D

 26 27  0  0  0  0  0  0  0  0999 V2000
    5.9938   -0.2745   21.2641 C   0  0  0  0  0  0  0  0  0  0  0  0
    7.3340   -0.5497   20.1792 O   0  0  0  0  0  0  0  0  0  0  0  0
    7.3320    0.0402   18.8646 C   0  0  0  0  0  0  0  0  0  0  0  0
    7.3378    1.4611   19.1438 O   0  0  0  0  0  0  0  0  0  0  0  0
    8.1971    0.0216   17.2212 C   0  0  0  0  0  0  0  0  0  0  0  0
    9.2422    0.8882   16.6990 N   0  0  0  0  0  0  0  0  0  0  0  0
    9.1990    2.2468   16.5684 C   0  0  0  0  0  0  0  0  0  0  0  0
   10.2292    2.7129   15.9007 N   0  0  0  0  0  0  0  0  0  0  0  0
   10.9398    1.6114   15.5019 C   0  0  0  0  0  0  0  0  0  0  0  0
   12.1187    1.5328   14.7444 C   0  0  0  0  0  0  0  0  0  0  0  0
   12.6340    0.2757   14.4062 C   0  0  0  0  0  0  0  0  0  0  0  0
   11.9790   -0.8857   14.8008 C   0  0  0  0  0  0  0  0  0  0  0  0
   10.8058   -0.8254   15.5594 C   0  0  0  0  0  0  0  0  0  0  0  0
   10.3154    0.4413   15.9248 C   0  0  0  0  0  0  0  0  0  0  0  0
    6.1852    0.6848   21.7175 H   0  0  0  0  0  0  0  0  0  0  0  0
    5.8305   -1.2348   21.7609 H   0  0  0  0  0  0  0  0  0  0  0  0
    5.0203    0.1942   21.2216 H   0  0  0  0  0  0  0  0  0  0  0  0
    6.4784   -0.5032   18.4953 H   0  0  0  0  0  0  0  0  0  0  0  0
    7.0538    1.8693   18.3088 H   0  0  0  0  0  0  0  0  0  0  0  0
    7.4203    0.2151   16.4956 H   0  0  0  0  0  0  0  0  0  0  0  0
    8.4618   -0.9456   16.7995 H   0  0  0  0  0  0  0  0  0  0  0  0
    8.4049    2.8592   16.9710 H   0  0  0  0  0  0  0  0  0  0  0  0
   12.6105    2.4435   14.4206 H   0  0  0  0  0  0  0  0  0  0  0  0
   13.5417    0.2107   13.8118 H   0  0  0  0  0  0  0  0  0  0  0  0
   12.3705   -1.8543   14.4967 H   0  0  0  0  0  0  0  0  0  0  0  0
   10.3042   -1.7476   15.8141 H   0  0  0  0  0  0  0  0  0  0  0  0
  1  2  1  0
  2  3  1  0
  3  4  1  0
  3  5  1  0
  5  6  1  0
  6  7  1  0
  7  8  2  0
  8  9  1  0
  9 10  2  0
 10 11  1  0
 11 12  2  0
 12 13  1  0
 13 14  2  0
 14  6  1  0
 14  9  1  0
  1 15  1  0
  1 16  1  0
  1 17  1  0
  3 18  1  0
  4 19  1  0
  5 20  1  0
  5 21  1  0
  7 22  1  0
 10 23  1  0
 11 24  1  0
 12 25  1  0
 13 26  1  0
M  END
>  <Energy>  (13) 
154.52258674176829

>  <compound_id>  (13) 
46090

>  <target_id>  (13) 
1

>  <reference_id>  (13) 
55

>  <inspiration_ids>  (13) 
[55, 13]

>  <energy_score>  (13) 
130.78488684315136

>  <distance_score>  (13) 
6.156940860928257

>  <path>  (13) 
/opt/xchem-fragalysis-2/maxwin/BulkDock/SCRATCH/511023/C46090-P55/C46090-P55.minimised.mol

>  <scratch_subdir>  (13) 
/opt/xchem-fragalysis-2/maxwin/BulkDock/SCRATCH/511023/C46090-P55

>  <fragmenstein_runtime>  (13) 
5.27253794670105

>  <fragmenstein_outcome>  (13) 
too moved

>  <fragmenstein_mode>  (13) 
expansion

>  <fragmenstein_error>  (13) 


$$$$
C46090-P13
     RDKit          3D

 26 27  0  0  0  0  0  0  0  0999 V2000
    4.9470    5.4794   20.2773 C   0  0  0  0  0  0  0  0  0  0  0  0
    6.2007    4.7082   20.1746 O   0  0  0  0  0  0  0  0  0  0  0  0
    7.0464    4.7101   18.8784 C   0  0  0  0  0  0  0  0  0  0  0  0
    6.2235    4.8863   17.7283 O   0  0  0  0  0  0  0  0  0  0  0  0
    8.0613    3.3507   18.6505 C   0  0  0  0  0  0  0  0  0  0  0  0
    8.9370    3.0807   17.4500 N   0  0  0  0  0  0  0  0  0  0  0  0
    9.7230    4.0266   16.8254 C   0  0  0  0  0  0  0  0  0  0  0  0
   10.5102    3.5316   15.8876 N   0  0  0  0  0  0  0  0  0  0  0  0
   10.2734    2.1858   15.8711 C   0  0  0  0  0  0  0  0  0  0  0  0
   10.8887    1.1875   15.0774 C   0  0  0  0  0  0  0  0  0  0  0  0
   10.4452   -0.1285   15.1460 C   0  0  0  0  0  0  0  0  0  0  0  0
    9.3773   -0.4206   15.9755 C   0  0  0  0  0  0  0  0  0  0  0  0
    8.8117    0.5459   16.8461 C   0  0  0  0  0  0  0  0  0  0  0  0
    9.2774    1.8649   16.8023 C   0  0  0  0  0  0  0  0  0  0  0  0
    4.2498    5.2043   19.4829 H   0  0  0  0  0  0  0  0  0  0  0  0
    4.4932    5.3317   21.2586 H   0  0  0  0  0  0  0  0  0  0  0  0
    5.2088    6.5356   20.1692 H   0  0  0  0  0  0  0  0  0  0  0  0
    7.6943    5.5881   18.9644 H   0  0  0  0  0  0  0  0  0  0  0  0
    6.1579    4.0224   17.2825 H   0  0  0  0  0  0  0  0  0  0  0  0
    8.7544    3.3345   19.5003 H   0  0  0  0  0  0  0  0  0  0  0  0
    7.4409    2.4593   18.7372 H   0  0  0  0  0  0  0  0  0  0  0  0
    9.6950    5.0682   17.1157 H   0  0  0  0  0  0  0  0  0  0  0  0
   11.6705    1.4736   14.3821 H   0  0  0  0  0  0  0  0  0  0  0  0
   10.8607   -0.8824   14.4840 H   0  0  0  0  0  0  0  0  0  0  0  0
    8.9124   -1.3936   15.8727 H   0  0  0  0  0  0  0  0  0  0  0  0
    7.9429    0.3239   17.4528 H   0  0  0  0  0  0  0  0  0  0  0  0
  1  2  1  0
  2  3  1  0
  3  4  1  0
  3  5  1  0
  5  6  1  0
  6  7  1  0
  7  8  2  0
  8  9  1  0
  9 10  2  0
 10 11  1  0
 11 12  2  0
 12 13  1  0
 13 14  2  0
 14  6  1  0
 14  9  1  0
  1 15  1  0
  1 16  1  0
  1 17  1  0
  3 18  1  0
  4 19  1  0
  5 20  1  0
  5 21  1  0
  7 22  1  0
 10 23  1  0
 11 24  1  0
 12 25  1  0
 13 26  1  0
M  END
>  <Energy>  (14) 
43.494648512232068

>  <compound_id>  (14) 
46090

>  <target_id>  (14) 
1

>  <reference_id>  (14) 
13

>  <inspiration_ids>  (14) 
[55, 13]

>  <energy_score>  (14) 
17.32079743842621

>  <distance_score>  (14) 
6.458237003521807

>  <path>  (14) 
/opt/xchem-fragalysis-2/maxwin/BulkDock/SCRATCH/511023/C46090-P13/C46090-P13.minimised.mol

>  <scratch_subdir>  (14) 
/opt/xchem-fragalysis-2/maxwin/BulkDock/SCRATCH/511023/C46090-P13

>  <fragmenstein_runtime>  (14) 
3.911160945892334

>  <fragmenstein_outcome>  (14) 
too moved

>  <fragmenstein_mode>  (14) 
expansion

>  <fragmenstein_error>  (14) 


$$$$
C46098-P35
     RDKit          3D

 38 40  0  0  0  0  0  0  0  0999 V2000
    2.7484   -9.7715   17.6736 C   0  0  0  0  0  0  0  0  0  0  0  0
    3.3264   -8.9743   18.8497 C   0  0  0  0  0  0  0  0  0  0  0  0
    3.1478   -7.4857   18.7658 N   0  0  0  0  0  0  0  0  0  0  0  0
    1.7192   -7.8482   19.3987 C   0  0  0  0  0  0  0  0  0  0  0  0
    1.1078   -8.8598   20.4140 C   0  0  0  0  0  0  0  0  0  0  0  0
    1.4632   -9.1934   21.7192 C   0  0  0  0  0  0  0  0  0  0  0  0
    0.4865   -9.9161   22.3520 N   0  0  0  0  0  0  0  0  0  0  0  0
   -0.5050   -9.9602   21.5091 C   0  0  0  0  0  0  0  0  0  0  0  0
   -0.1403   -9.4855   20.2872 N   0  0  0  0  0  0  0  0  0  0  0  0
   -1.0213   -9.7233   19.1664 C   0  0  0  0  0  0  0  0  0  0  0  0
    4.3110   -6.8049   19.3519 C   0  0  0  0  0  0  0  0  0  0  0  0
    4.5110   -6.4337   20.4784 O   0  0  0  0  0  0  0  0  0  0  0  0
    5.3226   -6.4747   18.2743 C   0  0  0  0  0  0  0  0  0  0  0  0
    5.1814   -6.7975   16.9208 C   0  0  0  0  0  0  0  0  0  0  0  0
    6.1712   -6.4011   16.0416 N   0  0  0  0  0  0  0  0  0  0  0  0
    7.0969   -5.7512   16.7174 C   0  0  0  0  0  0  0  0  0  0  0  0
    8.4634   -4.4855   16.1893 C   0  0  0  0  0  0  0  0  0  0  0  0
   10.0693   -4.4848   17.3973 C   0  0  0  0  0  0  0  0  0  0  0  0
    9.0350   -4.4147   19.4131 C   0  0  0  0  0  0  0  0  0  0  0  0
    7.2402   -4.7451   19.5865 C   0  0  0  0  0  0  0  0  0  0  0  0
    6.5338   -5.7061   18.3324 N   0  0  0  0  0  0  0  0  0  0  0  0
    3.1430  -10.7926   17.6868 H   0  0  0  0  0  0  0  0  0  0  0  0
    1.6602   -9.8372   17.6855 H   0  0  0  0  0  0  0  0  0  0  0  0
    3.0373   -9.3194   16.7193 H   0  0  0  0  0  0  0  0  0  0  0  0
    3.2810   -9.4310   19.8437 H   0  0  0  0  0  0  0  0  0  0  0  0
    4.4100   -9.1021   18.6815 H   0  0  0  0  0  0  0  0  0  0  0  0
    1.0582   -7.8317   18.5190 H   0  0  0  0  0  0  0  0  0  0  0  0
    1.4991   -6.8870   19.8920 H   0  0  0  0  0  0  0  0  0  0  0  0
    2.3611   -8.8959   22.2481 H   0  0  0  0  0  0  0  0  0  0  0  0
   -1.4838  -10.3785   21.6579 H   0  0  0  0  0  0  0  0  0  0  0  0
   -1.2603  -10.7892   19.1190 H   0  0  0  0  0  0  0  0  0  0  0  0
   -1.9285   -9.1305   19.3110 H   0  0  0  0  0  0  0  0  0  0  0  0
   -0.5275   -9.4191   18.2430 H   0  0  0  0  0  0  0  0  0  0  0  0
    4.3365   -7.3312   16.5013 H   0  0  0  0  0  0  0  0  0  0  0  0
    8.6822   -4.0995   15.1674 H   0  0  0  0  0  0  0  0  0  0  0  0
   11.0647   -4.0627   17.1451 H   0  0  0  0  0  0  0  0  0  0  0  0
    9.4318   -4.2043   20.5030 H   0  0  0  0  0  0  0  0  0  0  0  0
    6.6669   -4.7485   20.5207 H   0  0  0  0  0  0  0  0  0  0  0  0
  1  2  1  0
  2  3  1  0
  3  4  1  0
  4  5  1  0
  5  6  2  0
  6  7  1  0
  7  8  2  0
  8  9  1  0
  9 10  1  0
  3 11  1  0
 11 12  2  0
 11 13  1  0
 13 14  2  0
 14 15  1  0
 15 16  2  0
 16 17  1  0
 17 18  2  0
 18 19  1  0
 19 20  2  0
 20 21  1  0
  9  5  1  0
 21 13  1  0
 21 16  1  0
  1 22  1  0
  1 23  1  0
  1 24  1  0
  2 25  1  0
  2 26  1  0
  4 27  1  0
  4 28  1  0
  6 29  1  0
  8 30  1  0
 10 31  1  0
 10 32  1  0
 10 33  1  0
 14 34  1  0
 17 35  1  0
 18 36  1  0
 19 37  1  0
 20 38  1  0
M  END
>  <Energy>  (15) 
818.34975269811684

>  <compound_id>  (15) 
46098

>  <target_id>  (15) 
1

>  <reference_id>  (15) 
35

>  <inspiration_ids>  (15) 
[35, 8]

>  <energy_score>  (15) 
804.7920375731628

>  <distance_score>  (15) 
15.749553205014344

>  <path>  (15) 
/opt/xchem-fragalysis-2/maxwin/BulkDock/SCRATCH/511023/C46098-P35/C46098-P35.minimised.mol

>  <scratch_subdir>  (15) 
/opt/xchem-fragalysis-2/maxwin/BulkDock/SCRATCH/511023/C46098-P35

>  <fragmenstein_runtime>  (15) 
21.490237712860107

>  <fragmenstein_outcome>  (15) 
too moved

>  <fragmenstein_mode>  (15) 
expansion

>  <fragmenstein_error>  (15) 


$$$$
C46098-P8
     RDKit          3D

 38 40  0  0  0  0  0  0  0  0999 V2000
    3.3219  -13.6340   24.4394 C   0  0  0  0  0  0  0  0  0  0  0  0
    2.0192  -12.9547   24.7552 C   0  0  0  0  0  0  0  0  0  0  0  0
    1.5445  -12.4536   23.5530 N   0  0  0  0  0  0  0  0  0  0  0  0
    0.3013  -14.0939   23.7246 C   0  0  0  0  0  0  0  0  0  0  0  0
   -1.4063  -14.9104   24.6089 C   0  0  0  0  0  0  0  0  0  0  0  0
   -2.1219  -14.1792   25.6172 C   0  0  0  0  0  0  0  0  0  0  0  0
   -2.1619  -14.7494   27.0085 N   0  0  0  0  0  0  0  0  0  0  0  0
   -2.3024  -16.0125   27.0609 C   0  0  0  0  0  0  0  0  0  0  0  0
   -2.5064  -16.2760   25.2995 N   0  0  0  0  0  0  0  0  0  0  0  0
   -1.9445  -17.8590   25.9182 C   0  0  0  0  0  0  0  0  0  0  0  0
    2.9354  -12.1023   22.4303 C   0  0  0  0  0  0  0  0  0  0  0  0
    3.4487  -12.8560   21.6066 O   0  0  0  0  0  0  0  0  0  0  0  0
    3.6182  -10.5658   22.2980 C   0  0  0  0  0  0  0  0  0  0  0  0
    4.9912  -10.1852   22.3912 C   0  0  0  0  0  0  0  0  0  0  0  0
    5.3334   -8.9601   21.9088 N   0  0  0  0  0  0  0  0  0  0  0  0
    4.2514   -8.5627   21.3149 C   0  0  0  0  0  0  0  0  0  0  0  0
    4.0951   -7.4186   20.4814 C   0  0  0  0  0  0  0  0  0  0  0  0
    2.8982   -7.1585   19.9385 C   0  0  0  0  0  0  0  0  0  0  0  0
    1.7639   -8.0158   20.2259 C   0  0  0  0  0  0  0  0  0  0  0  0
    1.9137   -9.1047   21.0059 C   0  0  0  0  0  0  0  0  0  0  0  0
    3.1643   -9.4287   21.5396 N   0  0  0  0  0  0  0  0  0  0  0  0
    3.7707  -12.7623   24.0796 H   0  0  0  0  0  0  0  0  0  0  0  0
    3.8907  -14.0838   25.2700 H   0  0  0  0  0  0  0  0  0  0  0  0
    3.2601  -14.3838   23.6423 H   0  0  0  0  0  0  0  0  0  0  0  0
    1.8978  -11.9882   25.1191 H   0  0  0  0  0  0  0  0  0  0  0  0
    1.4231  -13.3763   25.6075 H   0  0  0  0  0  0  0  0  0  0  0  0
   -0.2165  -14.0758   22.7583 H   0  0  0  0  0  0  0  0  0  0  0  0
    1.1840  -14.6921   23.5408 H   0  0  0  0  0  0  0  0  0  0  0  0
   -2.2717  -13.1083   25.5594 H   0  0  0  0  0  0  0  0  0  0  0  0
   -2.8389  -16.6738   27.7177 H   0  0  0  0  0  0  0  0  0  0  0  0
   -2.3072  -18.6845   25.4095 H   0  0  0  0  0  0  0  0  0  0  0  0
   -0.8810  -17.8837   26.1310 H   0  0  0  0  0  0  0  0  0  0  0  0
   -2.4230  -18.0325   26.8505 H   0  0  0  0  0  0  0  0  0  0  0  0
    5.8242  -10.7138   22.8201 H   0  0  0  0  0  0  0  0  0  0  0  0
    4.9589   -6.7916   20.2927 H   0  0  0  0  0  0  0  0  0  0  0  0
    2.7489   -6.3004   19.2912 H   0  0  0  0  0  0  0  0  0  0  0  0
    0.8001   -7.7555   19.8000 H   0  0  0  0  0  0  0  0  0  0  0  0
    1.0904   -9.7649   21.2457 H   0  0  0  0  0  0  0  0  0  0  0  0
  1  2  1  0
  2  3  1  0
  3  4  1  0
  4  5  1  0
  5  6  2  0
  6  7  1  0
  7  8  2  0
  8  9  1  0
  9 10  1  0
  3 11  1  0
 11 12  2  0
 11 13  1  0
 13 14  2  0
 14 15  1  0
 15 16  2  0
 16 17  1  0
 17 18  2  0
 18 19  1  0
 19 20  2  0
 20 21  1  0
  9  5  1  0
 21 13  1  0
 21 16  1  0
  1 22  1  0
  1 23  1  0
  1 24  1  0
  2 25  1  0
  2 26  1  0
  4 27  1  0
  4 28  1  0
  6 29  1  0
  8 30  1  0
 10 31  1  0
 10 32  1  0
 10 33  1  0
 14 34  1  0
 17 35  1  0
 18 36  1  0
 19 37  1  0
 20 38  1  0
M  END
>  <Energy>  (16) 
694.37388772703446

>  <compound_id>  (16) 
46098

>  <target_id>  (16) 
1

>  <reference_id>  (16) 
8

>  <inspiration_ids>  (16) 
[35, 8]

>  <energy_score>  (16) 
680.8161726020696

>  <distance_score>  (16) 
14.219615382484948

>  <path>  (16) 
/opt/xchem-fragalysis-2/maxwin/BulkDock/SCRATCH/511023/C46098-P8/C46098-P8.minimised.mol

>  <scratch_subdir>  (16) 
/opt/xchem-fragalysis-2/maxwin/BulkDock/SCRATCH/511023/C46098-P8

>  <fragmenstein_runtime>  (16) 
15.216283559799194

>  <fragmenstein_outcome>  (16) 
too moved

>  <fragmenstein_mode>  (16) 
expansion

>  <fragmenstein_error>  (16) 


$$$$
C46101-P35
     RDKit          3D

 35 37  0  0  0  0  0  0  0  0999 V2000
   -4.4794  -20.5941   25.3760 C   0  0  0  0  0  0  0  0  0  0  0  0
   -2.9179  -19.8900   25.3696 C   0  0  0  0  0  0  0  0  0  0  0  0
   -2.4829  -20.9409   24.3848 N   0  0  0  0  0  0  0  0  0  0  0  0
   -1.7779  -20.4714   23.3209 C   0  0  0  0  0  0  0  0  0  0  0  0
   -1.3974  -19.2197   23.6427 N   0  0  0  0  0  0  0  0  0  0  0  0
   -2.0517  -18.2734   25.2441 C   0  0  0  0  0  0  0  0  0  0  0  0
   -2.1250  -16.2004   24.7261 C   0  0  0  0  0  0  0  0  0  0  0  0
   -0.9169  -14.4505   24.5361 C   0  0  0  0  0  0  0  0  0  0  0  0
   -1.4114  -13.5621   25.2220 O   0  0  0  0  0  0  0  0  0  0  0  0
    0.8217  -14.0312   23.6892 N   0  0  0  0  0  0  0  0  0  0  0  0
    2.1066  -12.4103   23.8260 C   0  0  0  0  0  0  0  0  0  0  0  0
    3.4905  -11.3149   22.7528 C   0  0  0  0  0  0  0  0  0  0  0  0
    4.9962  -10.6963   22.6244 C   0  0  0  0  0  0  0  0  0  0  0  0
    5.2558   -9.8304   21.5930 N   0  0  0  0  0  0  0  0  0  0  0  0
    6.4202   -9.5654   20.8937 C   0  0  0  0  0  0  0  0  0  0  0  0
    6.4067   -8.5529   20.0170 C   0  0  0  0  0  0  0  0  0  0  0  0
    5.2316   -7.7023   19.9119 C   0  0  0  0  0  0  0  0  0  0  0  0
    4.1288   -7.9659   20.6449 C   0  0  0  0  0  0  0  0  0  0  0  0
    4.1206   -9.1118   21.4923 C   0  0  0  0  0  0  0  0  0  0  0  0
    3.2186   -9.7703   22.1941 N   0  0  0  0  0  0  0  0  0  0  0  0
   -4.8189  -21.0462   24.4422 H   0  0  0  0  0  0  0  0  0  0  0  0
   -5.3399  -20.0499   25.7629 H   0  0  0  0  0  0  0  0  0  0  0  0
   -4.3537  -21.5944   25.8357 H   0  0  0  0  0  0  0  0  0  0  0  0
   -2.8748  -21.8683   24.3876 H   0  0  0  0  0  0  0  0  0  0  0  0
   -1.4985  -21.0366   22.4433 H   0  0  0  0  0  0  0  0  0  0  0  0
   -2.9966  -15.8193   24.1732 H   0  0  0  0  0  0  0  0  0  0  0  0
   -2.6521  -16.0289   25.6529 H   0  0  0  0  0  0  0  0  0  0  0  0
    1.1525  -14.8284   23.2427 H   0  0  0  0  0  0  0  0  0  0  0  0
    1.8458  -11.9081   24.7168 H   0  0  0  0  0  0  0  0  0  0  0  0
    2.9404  -13.0966   24.0418 H   0  0  0  0  0  0  0  0  0  0  0  0
    5.8612  -10.8626   23.2740 H   0  0  0  0  0  0  0  0  0  0  0  0
    7.2687  -10.2165   21.0532 H   0  0  0  0  0  0  0  0  0  0  0  0
    7.2668   -8.3641   19.4120 H   0  0  0  0  0  0  0  0  0  0  0  0
    5.2604   -6.8601   19.2292 H   0  0  0  0  0  0  0  0  0  0  0  0
    3.2255   -7.3728   20.5738 H   0  0  0  0  0  0  0  0  0  0  0  0
  1  2  1  0
  2  3  1  0
  3  4  1  0
  4  5  2  0
  5  6  1  0
  6  7  1  0
  7  8  1  0
  8  9  2  0
  8 10  1  0
 10 11  1  0
 11 12  1  0
 12 13  2  0
 13 14  1  0
 14 15  1  0
 15 16  2  0
 16 17  1  0
 17 18  2  0
 18 19  1  0
 19 20  2  0
  6  2  2  0
 20 12  1  0
 19 14  1  0
  1 21  1  0
  1 22  1  0
  1 23  1  0
  3 24  1  0
  4 25  1  0
  7 26  1  0
  7 27  1  0
 10 28  1  0
 11 29  1  0
 11 30  1  0
 13 31  1  0
 15 32  1  0
 16 33  1  0
 17 34  1  0
 18 35  1  0
M  END
>  <Energy>  (17) 
1020.0982085088523

>  <compound_id>  (17) 
46101

>  <target_id>  (17) 
1

>  <reference_id>  (17) 
35

>  <inspiration_ids>  (17) 
[35, 8]

>  <energy_score>  (17) 
965.6907632743563

>  <distance_score>  (17) 
13.498691719383796

>  <path>  (17) 
/opt/xchem-fragalysis-2/maxwin/BulkDock/SCRATCH/511023/C46101-P35/C46101-P35.minimised.mol

>  <scratch_subdir>  (17) 
/opt/xchem-fragalysis-2/maxwin/BulkDock/SCRATCH/511023/C46101-P35

>  <fragmenstein_runtime>  (17) 
17.922199726104736

>  <fragmenstein_outcome>  (17) 
too moved

>  <fragmenstein_mode>  (17) 
expansion

>  <fragmenstein_error>  (17) 


$$$$
C46101-P8
     RDKit          3D

 35 37  0  0  0  0  0  0  0  0999 V2000
   -5.1318  -18.1468   27.7960 C   0  0  0  0  0  0  0  0  0  0  0  0
   -3.4887  -16.9799   27.6364 C   0  0  0  0  0  0  0  0  0  0  0  0
   -3.5608  -16.1031   28.7082 N   0  0  0  0  0  0  0  0  0  0  0  0
   -2.5627  -15.0406   28.7627 C   0  0  0  0  0  0  0  0  0  0  0  0
   -1.6237  -15.2593   27.9521 N   0  0  0  0  0  0  0  0  0  0  0  0
   -2.2578  -15.8994   26.9625 C   0  0  0  0  0  0  0  0  0  0  0  0
   -1.8162  -14.7084   25.3280 C   0  0  0  0  0  0  0  0  0  0  0  0
   -0.1616  -14.1345   24.1308 C   0  0  0  0  0  0  0  0  0  0  0  0
   -0.4336  -14.2861   22.9650 O   0  0  0  0  0  0  0  0  0  0  0  0
    1.5360  -13.3099   24.5347 N   0  0  0  0  0  0  0  0  0  0  0  0
    2.9220  -12.7441   23.4571 C   0  0  0  0  0  0  0  0  0  0  0  0
    4.0088  -11.5837   22.3392 C   0  0  0  0  0  0  0  0  0  0  0  0
    4.5899  -10.2596   22.2772 C   0  0  0  0  0  0  0  0  0  0  0  0
    5.6681  -10.2042   21.3721 N   0  0  0  0  0  0  0  0  0  0  0  0
    6.6689   -9.2327   21.2392 C   0  0  0  0  0  0  0  0  0  0  0  0
    7.6568   -9.4279   20.3472 C   0  0  0  0  0  0  0  0  0  0  0  0
    7.5993  -10.5719   19.4579 C   0  0  0  0  0  0  0  0  0  0  0  0
    6.6311  -11.4980   19.5896 C   0  0  0  0  0  0  0  0  0  0  0  0
    5.6601  -11.3663   20.6243 C   0  0  0  0  0  0  0  0  0  0  0  0
    4.7016  -12.1796   21.0661 N   0  0  0  0  0  0  0  0  0  0  0  0
   -5.5230  -18.8494   27.0471 H   0  0  0  0  0  0  0  0  0  0  0  0
   -5.9134  -17.7116   28.5260 H   0  0  0  0  0  0  0  0  0  0  0  0
   -5.4202  -18.9395   28.4938 H   0  0  0  0  0  0  0  0  0  0  0  0
   -4.1298  -16.2077   29.5439 H   0  0  0  0  0  0  0  0  0  0  0  0
   -2.6093  -14.3497   29.5565 H   0  0  0  0  0  0  0  0  0  0  0  0
   -2.4515  -15.2896   24.6402 H   0  0  0  0  0  0  0  0  0  0  0  0
   -2.2565  -13.7650   25.6421 H   0  0  0  0  0  0  0  0  0  0  0  0
    1.5924  -13.1669   25.5396 H   0  0  0  0  0  0  0  0  0  0  0  0
    3.0343  -13.7136   23.0178 H   0  0  0  0  0  0  0  0  0  0  0  0
    2.1980  -11.9791   23.2371 H   0  0  0  0  0  0  0  0  0  0  0  0
    4.4119   -9.3371   22.7641 H   0  0  0  0  0  0  0  0  0  0  0  0
    6.6353   -8.3913   21.9164 H   0  0  0  0  0  0  0  0  0  0  0  0
    8.5101   -8.7705   20.2733 H   0  0  0  0  0  0  0  0  0  0  0  0
    8.3581  -10.6719   18.6879 H   0  0  0  0  0  0  0  0  0  0  0  0
    6.5752  -12.3683   18.9447 H   0  0  0  0  0  0  0  0  0  0  0  0
  1  2  1  0
  2  3  1  0
  3  4  1  0
  4  5  2  0
  5  6  1  0
  6  7  1  0
  7  8  1  0
  8  9  2  0
  8 10  1  0
 10 11  1  0
 11 12  1  0
 12 13  2  0
 13 14  1  0
 14 15  1  0
 15 16  2  0
 16 17  1  0
 17 18  2  0
 18 19  1  0
 19 20  2  0
  6  2  2  0
 20 12  1  0
 19 14  1  0
  1 21  1  0
  1 22  1  0
  1 23  1  0
  3 24  1  0
  4 25  1  0
  7 26  1  0
  7 27  1  0
 10 28  1  0
 11 29  1  0
 11 30  1  0
 13 31  1  0
 15 32  1  0
 16 33  1  0
 17 34  1  0
 18 35  1  0
M  END
>  <Energy>  (18) 
771.6937768360242

>  <compound_id>  (18) 
46101

>  <target_id>  (18) 
1

>  <reference_id>  (18) 
8

>  <inspiration_ids>  (18) 
[35, 8]

>  <energy_score>  (18) 
717.2863316015299

>  <distance_score>  (18) 
13.795724830371999

>  <path>  (18) 
/opt/xchem-fragalysis-2/maxwin/BulkDock/SCRATCH/511023/C46101-P8/C46101-P8.minimised.mol

>  <scratch_subdir>  (18) 
/opt/xchem-fragalysis-2/maxwin/BulkDock/SCRATCH/511023/C46101-P8

>  <fragmenstein_runtime>  (18) 
22.38627052307129

>  <fragmenstein_outcome>  (18) 
too moved

>  <fragmenstein_mode>  (18) 
expansion

>  <fragmenstein_error>  (18) 


$$$$
C46105-P35
     RDKit          3D

 44 46  0  0  0  0  0  0  0  0999 V2000
    8.7356   -7.3032   24.0473 C   0  0  0  0  0  0  0  0  0  0  0  0
    9.2666   -8.6262   23.6168 C   0  0  0  0  0  0  0  0  0  0  0  0
   10.1312   -8.7497   22.6247 N   0  0  0  0  0  0  0  0  0  0  0  0
   10.3889  -10.0819   22.5214 C   0  0  0  0  0  0  0  0  0  0  0  0
    9.6629  -10.7951   23.4482 C   0  0  0  0  0  0  0  0  0  0  0  0
    8.9348   -9.8782   24.1636 N   0  0  0  0  0  0  0  0  0  0  0  0
    7.8683  -10.1867   25.1338 C   0  0  0  0  0  0  0  0  0  0  0  0
    7.7415  -11.6025   25.9878 C   0  0  0  0  0  0  0  0  0  0  0  0
    6.1937  -12.0683   26.2875 C   0  0  0  0  0  0  0  0  0  0  0  0
    5.1271  -12.9609   27.4304 C   0  0  0  0  0  0  0  0  0  0  0  0
    5.2647  -12.5206   28.5585 O   0  0  0  0  0  0  0  0  0  0  0  0
    4.2131  -14.3009   26.8755 N   0  0  0  0  0  0  0  0  0  0  0  0
    3.3170  -15.5060   27.7699 C   0  0  0  0  0  0  0  0  0  0  0  0
    1.7846  -16.5590   28.2893 C   0  0  0  0  0  0  0  0  0  0  0  0
    1.2980  -16.9086   30.1198 C   0  0  0  0  0  0  0  0  0  0  0  0
    1.5729  -17.8997   31.1027 C   0  0  0  0  0  0  0  0  0  0  0  0
    0.5567  -17.8853   32.0436 N   0  0  0  0  0  0  0  0  0  0  0  0
    0.0435  -18.9010   32.8576 C   0  0  0  0  0  0  0  0  0  0  0  0
   -1.0555  -18.6604   33.5967 C   0  0  0  0  0  0  0  0  0  0  0  0
   -1.6291  -17.3224   33.5749 C   0  0  0  0  0  0  0  0  0  0  0  0
   -1.0812  -16.3336   32.8346 C   0  0  0  0  0  0  0  0  0  0  0  0
    0.0309  -16.6175   31.9732 C   0  0  0  0  0  0  0  0  0  0  0  0
    0.4591  -16.0342   30.8518 N   0  0  0  0  0  0  0  0  0  0  0  0
    9.0150   -7.1012   25.0856 H   0  0  0  0  0  0  0  0  0  0  0  0
    7.6446   -7.2855   23.9671 H   0  0  0  0  0  0  0  0  0  0  0  0
    9.1376   -6.5002   23.4217 H   0  0  0  0  0  0  0  0  0  0  0  0
   11.0785  -10.4692   21.7828 H   0  0  0  0  0  0  0  0  0  0  0  0
    9.6050  -11.8572   23.6371 H   0  0  0  0  0  0  0  0  0  0  0  0
    6.9494  -10.0828   24.5458 H   0  0  0  0  0  0  0  0  0  0  0  0
    7.8836   -9.3756   25.8713 H   0  0  0  0  0  0  0  0  0  0  0  0
    8.2371  -12.4097   25.4407 H   0  0  0  0  0  0  0  0  0  0  0  0
    8.2634  -11.4819   26.9433 H   0  0  0  0  0  0  0  0  0  0  0  0
    5.8946  -12.4141   25.3305 H   0  0  0  0  0  0  0  0  0  0  0  0
    5.8543  -11.0658   26.5591 H   0  0  0  0  0  0  0  0  0  0  0  0
    4.2473  -14.3456   25.8615 H   0  0  0  0  0  0  0  0  0  0  0  0
    2.5485  -14.7528   27.6530 H   0  0  0  0  0  0  0  0  0  0  0  0
    3.5700  -16.3076   27.0920 H   0  0  0  0  0  0  0  0  0  0  0  0
    1.1454  -15.7711   28.2136 H   0  0  0  0  0  0  0  0  0  0  0  0
    1.4403  -17.2712   27.5488 H   0  0  0  0  0  0  0  0  0  0  0  0
    2.2626  -18.7204   31.1840 H   0  0  0  0  0  0  0  0  0  0  0  0
    0.5385  -19.8612   32.8195 H   0  0  0  0  0  0  0  0  0  0  0  0
   -1.5118  -19.4198   34.2220 H   0  0  0  0  0  0  0  0  0  0  0  0
   -2.5041  -17.1331   34.1894 H   0  0  0  0  0  0  0  0  0  0  0  0
   -1.5121  -15.3392   32.8025 H   0  0  0  0  0  0  0  0  0  0  0  0
  1  2  1  0
  2  3  2  0
  3  4  1  0
  4  5  2  0
  5  6  1  0
  6  7  1  0
  7  8  1  0
  8  9  1  0
  9 10  1  0
 10 11  2  0
 10 12  1  0
 12 13  1  0
 13 14  1  0
 14 15  1  0
 15 16  2  0
 16 17  1  0
 17 18  1  0
 18 19  2  0
 19 20  1  0
 20 21  2  0
 21 22  1  0
 22 23  2  0
  6  2  1  0
 23 15  1  0
 22 17  1  0
  1 24  1  0
  1 25  1  0
  1 26  1  0
  4 27  1  0
  5 28  1  0
  7 29  1  0
  7 30  1  0
  8 31  1  0
  8 32  1  0
  9 33  1  0
  9 34  1  0
 12 35  1  0
 13 36  1  0
 13 37  1  0
 14 38  1  0
 14 39  1  0
 16 40  1  0
 18 41  1  0
 19 42  1  0
 20 43  1  0
 21 44  1  0
M  END
>  <Energy>  (19) 
326.1644915288532

>  <compound_id>  (19) 
46105

>  <target_id>  (19) 
1

>  <reference_id>  (19) 
35

>  <inspiration_ids>  (19) 
[35, 8]

>  <energy_score>  (19) 
292.9316202093687

>  <distance_score>  (19) 
13.658828552839408

>  <path>  (19) 
/opt/xchem-fragalysis-2/maxwin/BulkDock/SCRATCH/511023/C46105-P35/C46105-P35.minimised.mol

>  <scratch_subdir>  (19) 
/opt/xchem-fragalysis-2/maxwin/BulkDock/SCRATCH/511023/C46105-P35

>  <fragmenstein_runtime>  (19) 
23.89482831954956

>  <fragmenstein_outcome>  (19) 
too moved

>  <fragmenstein_mode>  (19) 
expansion

>  <fragmenstein_error>  (19) 


$$$$
C46105-P8
     RDKit          3D

 44 46  0  0  0  0  0  0  0  0999 V2000
    8.2256   -9.0536   20.1237 C   0  0  0  0  0  0  0  0  0  0  0  0
    7.0075   -8.2079   20.1564 C   0  0  0  0  0  0  0  0  0  0  0  0
    7.0352   -6.9190   19.8425 N   0  0  0  0  0  0  0  0  0  0  0  0
    5.7487   -6.4864   19.9489 C   0  0  0  0  0  0  0  0  0  0  0  0
    4.9221   -7.5142   20.3332 C   0  0  0  0  0  0  0  0  0  0  0  0
    5.7165   -8.6325   20.4842 N   0  0  0  0  0  0  0  0  0  0  0  0
    5.1600   -9.9959   20.7373 C   0  0  0  0  0  0  0  0  0  0  0  0
    4.4211  -10.2356   22.1349 C   0  0  0  0  0  0  0  0  0  0  0  0
    3.2238  -11.4508   22.4622 C   0  0  0  0  0  0  0  0  0  0  0  0
    3.4231  -12.9897   22.1876 C   0  0  0  0  0  0  0  0  0  0  0  0
    3.6791  -13.1686   20.9975 O   0  0  0  0  0  0  0  0  0  0  0  0
    3.2933  -14.2278   23.5506 N   0  0  0  0  0  0  0  0  0  0  0  0
    3.6510  -16.2080   23.5715 C   0  0  0  0  0  0  0  0  0  0  0  0
    2.7941  -17.8859   24.7195 C   0  0  0  0  0  0  0  0  0  0  0  0
    0.8398  -18.6964   24.9612 C   0  0  0  0  0  0  0  0  0  0  0  0
   -0.5600  -18.0286   25.8757 C   0  0  0  0  0  0  0  0  0  0  0  0
   -0.5218  -18.0183   27.2509 N   0  0  0  0  0  0  0  0  0  0  0  0
    0.4615  -17.7404   28.3909 C   0  0  0  0  0  0  0  0  0  0  0  0
    0.4136  -18.4783   29.8365 C   0  0  0  0  0  0  0  0  0  0  0  0
   -0.1795  -19.9057   29.8285 C   0  0  0  0  0  0  0  0  0  0  0  0
   -0.8645  -20.3645   28.6701 C   0  0  0  0  0  0  0  0  0  0  0  0
   -1.0641  -19.4008   27.1271 C   0  0  0  0  0  0  0  0  0  0  0  0
    0.3121  -19.1096   26.3028 N   0  0  0  0  0  0  0  0  0  0  0  0
    9.1208   -8.4436   20.2713 H   0  0  0  0  0  0  0  0  0  0  0  0
    8.2045   -9.8066   20.9171 H   0  0  0  0  0  0  0  0  0  0  0  0
    8.3079   -9.5628   19.1591 H   0  0  0  0  0  0  0  0  0  0  0  0
    5.4725   -5.4624   19.7351 H   0  0  0  0  0  0  0  0  0  0  0  0
    3.8535   -7.5525   20.4906 H   0  0  0  0  0  0  0  0  0  0  0  0
    4.4447  -10.1670   19.9246 H   0  0  0  0  0  0  0  0  0  0  0  0
    5.9826  -10.7085   20.6253 H   0  0  0  0  0  0  0  0  0  0  0  0
    5.2318  -10.3062   22.8603 H   0  0  0  0  0  0  0  0  0  0  0  0
    3.8895   -9.3040   22.3719 H   0  0  0  0  0  0  0  0  0  0  0  0
    2.5422  -11.3587   23.2976 H   0  0  0  0  0  0  0  0  0  0  0  0
    2.5231  -11.1479   21.6673 H   0  0  0  0  0  0  0  0  0  0  0  0
    3.1524  -13.7526   24.4378 H   0  0  0  0  0  0  0  0  0  0  0  0
    4.5152  -15.9792   24.2070 H   0  0  0  0  0  0  0  0  0  0  0  0
    2.6974  -15.7321   23.5028 H   0  0  0  0  0  0  0  0  0  0  0  0
    3.1254  -18.7978   24.2250 H   0  0  0  0  0  0  0  0  0  0  0  0
    2.0664  -17.3514   24.4598 H   0  0  0  0  0  0  0  0  0  0  0  0
   -1.6379  -18.0235   25.5991 H   0  0  0  0  0  0  0  0  0  0  0  0
   -0.3317  -18.3888   28.5793 H   0  0  0  0  0  0  0  0  0  0  0  0
    0.9977  -18.1461   30.7015 H   0  0  0  0  0  0  0  0  0  0  0  0
    0.0816  -20.4901   30.6828 H   0  0  0  0  0  0  0  0  0  0  0  0
   -0.7748  -21.4413   28.5790 H   0  0  0  0  0  0  0  0  0  0  0  0
  1  2  1  0
  2  3  2  0
  3  4  1  0
  4  5  2  0
  5  6  1  0
  6  7  1  0
  7  8  1  0
  8  9  1  0
  9 10  1  0
 10 11  2  0
 10 12  1  0
 12 13  1  0
 13 14  1  0
 14 15  1  0
 15 16  2  0
 16 17  1  0
 17 18  1  0
 18 19  2  0
 19 20  1  0
 20 21  2  0
 21 22  1  0
 22 23  2  0
  6  2  1  0
 23 15  1  0
 22 17  1  0
  1 24  1  0
  1 25  1  0
  1 26  1  0
  4 27  1  0
  5 28  1  0
  7 29  1  0
  7 30  1  0
  8 31  1  0
  8 32  1  0
  9 33  1  0
  9 34  1  0
 12 35  1  0
 13 36  1  0
 13 37  1  0
 14 38  1  0
 14 39  1  0
 16 40  1  0
 18 41  1  0
 19 42  1  0
 20 43  1  0
 21 44  1  0
M  END
>  <Energy>  (20) 
1169.0109656428037

>  <compound_id>  (20) 
46105

>  <target_id>  (20) 
1

>  <reference_id>  (20) 
8

>  <inspiration_ids>  (20) 
[35, 8]

>  <energy_score>  (20) 
1135.7780943233208

>  <distance_score>  (20) 
13.281222108643354

>  <path>  (20) 
/opt/xchem-fragalysis-2/maxwin/BulkDock/SCRATCH/511023/C46105-P8/C46105-P8.minimised.mol

>  <scratch_subdir>  (20) 
/opt/xchem-fragalysis-2/maxwin/BulkDock/SCRATCH/511023/C46105-P8

>  <fragmenstein_runtime>  (20) 
16.560992002487183

>  <fragmenstein_outcome>  (20) 
too moved

>  <fragmenstein_mode>  (20) 
expansion

>  <fragmenstein_error>  (20) 


$$$$
C46107-P35
     RDKit          3D

 38 40  0  0  0  0  0  0  0  0999 V2000
    3.4087  -13.2842   21.5126 O   0  0  0  0  0  0  0  0  0  0  0  0
    3.3376  -12.5621   22.4895 C   0  0  0  0  0  0  0  0  0  0  0  0
    4.6101  -11.1312   22.3045 C   0  0  0  0  0  0  0  0  0  0  0  0
    6.3125  -11.4048   21.3220 C   0  0  0  0  0  0  0  0  0  0  0  0
    7.6386  -11.3390   21.8082 C   0  0  0  0  0  0  0  0  0  0  0  0
    8.4760  -11.3505   20.7079 N   0  0  0  0  0  0  0  0  0  0  0  0
    9.8673  -11.2558   20.6436 C   0  0  0  0  0  0  0  0  0  0  0  0
   10.4732  -11.3217   19.4455 C   0  0  0  0  0  0  0  0  0  0  0  0
    9.6529  -11.4581   18.2490 C   0  0  0  0  0  0  0  0  0  0  0  0
    8.3077  -11.4938   18.3177 C   0  0  0  0  0  0  0  0  0  0  0  0
    7.6639  -11.4633   19.5881 C   0  0  0  0  0  0  0  0  0  0  0  0
    6.3899  -11.5104   19.9252 N   0  0  0  0  0  0  0  0  0  0  0  0
    2.1008  -12.8060   23.8079 N   0  0  0  0  0  0  0  0  0  0  0  0
    0.5956  -14.0753   23.9543 C   0  0  0  0  0  0  0  0  0  0  0  0
   -1.1942  -14.6733   24.5721 C   0  0  0  0  0  0  0  0  0  0  0  0
   -2.5857  -14.9123   25.4075 N   0  0  0  0  0  0  0  0  0  0  0  0
   -3.5372  -13.9834   25.7918 C   0  0  0  0  0  0  0  0  0  0  0  0
   -4.5774  -14.5031   26.4049 N   0  0  0  0  0  0  0  0  0  0  0  0
   -4.4095  -15.8582   26.3391 C   0  0  0  0  0  0  0  0  0  0  0  0
   -5.3386  -16.8477   26.8701 C   0  0  0  0  0  0  0  0  0  0  0  0
   -5.1844  -18.0614   26.8112 O   0  0  0  0  0  0  0  0  0  0  0  0
   -6.4402  -16.3367   27.4668 O   0  0  0  0  0  0  0  0  0  0  0  0
   -3.2285  -16.1319   25.6823 C   0  0  0  0  0  0  0  0  0  0  0  0
    5.3294  -10.8980   23.0999 H   0  0  0  0  0  0  0  0  0  0  0  0
    4.5807  -11.5105   21.2892 H   0  0  0  0  0  0  0  0  0  0  0  0
    8.0266  -11.2166   22.8102 H   0  0  0  0  0  0  0  0  0  0  0  0
   10.4057  -11.1614   21.5774 H   0  0  0  0  0  0  0  0  0  0  0  0
   11.5517  -11.2820   19.3414 H   0  0  0  0  0  0  0  0  0  0  0  0
   10.1533  -11.4990   17.2853 H   0  0  0  0  0  0  0  0  0  0  0  0
    7.6928  -11.5763   17.4278 H   0  0  0  0  0  0  0  0  0  0  0  0
    2.1722  -12.0524   24.4656 H   0  0  0  0  0  0  0  0  0  0  0  0
   -0.0702  -13.8371   23.0769 H   0  0  0  0  0  0  0  0  0  0  0  0
    1.2463  -14.7330   23.3880 H   0  0  0  0  0  0  0  0  0  0  0  0
   -1.5611  -15.1476   23.6886 H   0  0  0  0  0  0  0  0  0  0  0  0
   -1.3180  -13.6802   25.0217 H   0  0  0  0  0  0  0  0  0  0  0  0
   -3.4213  -12.9260   25.6001 H   0  0  0  0  0  0  0  0  0  0  0  0
   -6.9328  -17.1299   27.7524 H   0  0  0  0  0  0  0  0  0  0  0  0
   -2.7958  -17.0954   25.4693 H   0  0  0  0  0  0  0  0  0  0  0  0
  1  2  2  0
  2  3  1  0
  3  4  1  0
  4  5  2  0
  5  6  1  0
  6  7  1  0
  7  8  2  0
  8  9  1  0
  9 10  2  0
 10 11  1  0
 11 12  2  0
  2 13  1  0
 13 14  1  0
 14 15  1  0
 15 16  1  0
 16 17  1  0
 17 18  2  0
 18 19  1  0
 19 20  1  0
 20 21  2  0
 20 22  1  0
 19 23  2  0
 12  4  1  0
 23 16  1  0
 11  6  1  0
  3 24  1  0
  3 25  1  0
  5 26  1  0
  7 27  1  0
  8 28  1  0
  9 29  1  0
 10 30  1  0
 13 31  1  0
 14 32  1  0
 14 33  1  0
 15 34  1  0
 15 35  1  0
 17 36  1  0
 22 37  1  0
 23 38  1  0
M  END
>  <Energy>  (21) 
556.13710355795513

>  <compound_id>  (21) 
46107

>  <target_id>  (21) 
1

>  <reference_id>  (21) 
35

>  <inspiration_ids>  (21) 
[35, 8]

>  <energy_score>  (21) 
471.3308675840444

>  <distance_score>  (21) 
13.610143714800852

>  <path>  (21) 
/opt/xchem-fragalysis-2/maxwin/BulkDock/SCRATCH/511023/C46107-P35/C46107-P35.minimised.mol

>  <scratch_subdir>  (21) 
/opt/xchem-fragalysis-2/maxwin/BulkDock/SCRATCH/511023/C46107-P35

>  <fragmenstein_runtime>  (21) 
21.82645869255066

>  <fragmenstein_outcome>  (21) 
too moved

>  <fragmenstein_mode>  (21) 
expansion

>  <fragmenstein_error>  (21) 


$$$$
C46107-P8
     RDKit          3D

 38 40  0  0  0  0  0  0  0  0999 V2000
   -2.0305   -9.4795   20.6167 O   0  0  0  0  0  0  0  0  0  0  0  0
   -2.2729   -9.6101   19.4447 C   0  0  0  0  0  0  0  0  0  0  0  0
   -1.9155   -8.3798   18.4484 C   0  0  0  0  0  0  0  0  0  0  0  0
   -0.5088   -7.6431   18.4182 C   0  0  0  0  0  0  0  0  0  0  0  0
    0.4736   -7.6946   17.4282 C   0  0  0  0  0  0  0  0  0  0  0  0
    1.4397   -6.7638   17.7284 N   0  0  0  0  0  0  0  0  0  0  0  0
    2.6469   -6.4896   17.0817 C   0  0  0  0  0  0  0  0  0  0  0  0
    3.4029   -5.4726   17.5225 C   0  0  0  0  0  0  0  0  0  0  0  0
    2.9249   -4.6720   18.6367 C   0  0  0  0  0  0  0  0  0  0  0  0
    1.7645   -4.9590   19.2611 C   0  0  0  0  0  0  0  0  0  0  0  0
    0.9662   -6.0595   18.8227 C   0  0  0  0  0  0  0  0  0  0  0  0
   -0.1886   -6.5577   19.2448 N   0  0  0  0  0  0  0  0  0  0  0  0
   -2.8593  -10.7690   18.6962 N   0  0  0  0  0  0  0  0  0  0  0  0
   -3.2313  -12.1616   19.1604 C   0  0  0  0  0  0  0  0  0  0  0  0
   -4.7498  -12.6183   19.3700 C   0  0  0  0  0  0  0  0  0  0  0  0
   -5.0453  -13.9899   19.8263 N   0  0  0  0  0  0  0  0  0  0  0  0
   -6.0589  -14.3578   20.6923 C   0  0  0  0  0  0  0  0  0  0  0  0
   -6.0283  -15.6417   20.9832 N   0  0  0  0  0  0  0  0  0  0  0  0
   -4.9834  -16.1594   20.2324 C   0  0  0  0  0  0  0  0  0  0  0  0
   -4.5841  -17.5611   20.2152 C   0  0  0  0  0  0  0  0  0  0  0  0
   -3.7531  -18.0539   19.4620 O   0  0  0  0  0  0  0  0  0  0  0  0
   -5.2253  -18.3514   21.1094 O   0  0  0  0  0  0  0  0  0  0  0  0
   -4.3887  -15.1462   19.4984 C   0  0  0  0  0  0  0  0  0  0  0  0
   -2.6590   -7.6044   18.6783 H   0  0  0  0  0  0  0  0  0  0  0  0
   -2.1185   -8.6956   17.4182 H   0  0  0  0  0  0  0  0  0  0  0  0
    0.5510   -8.2681   16.5232 H   0  0  0  0  0  0  0  0  0  0  0  0
    2.9215   -7.1236   16.2494 H   0  0  0  0  0  0  0  0  0  0  0  0
    4.3509   -5.2394   17.0698 H   0  0  0  0  0  0  0  0  0  0  0  0
    3.5332   -3.8447   18.9870 H   0  0  0  0  0  0  0  0  0  0  0  0
    1.4188   -4.3830   20.1119 H   0  0  0  0  0  0  0  0  0  0  0  0
   -2.8466  -10.5654   17.7053 H   0  0  0  0  0  0  0  0  0  0  0  0
   -2.6594  -12.3299   20.0729 H   0  0  0  0  0  0  0  0  0  0  0  0
   -2.7958  -12.8212   18.4006 H   0  0  0  0  0  0  0  0  0  0  0  0
   -5.2746  -12.5143   18.4125 H   0  0  0  0  0  0  0  0  0  0  0  0
   -5.2313  -11.9319   20.0753 H   0  0  0  0  0  0  0  0  0  0  0  0
   -6.7634  -13.6400   21.0922 H   0  0  0  0  0  0  0  0  0  0  0  0
   -4.8487  -19.2335   20.9261 H   0  0  0  0  0  0  0  0  0  0  0  0
   -3.5517  -15.1733   18.8143 H   0  0  0  0  0  0  0  0  0  0  0  0
  1  2  2  0
  2  3  1  0
  3  4  1  0
  4  5  2  0
  5  6  1  0
  6  7  1  0
  7  8  2  0
  8  9  1  0
  9 10  2  0
 10 11  1  0
 11 12  2  0
  2 13  1  0
 13 14  1  0
 14 15  1  0
 15 16  1  0
 16 17  1  0
 17 18  2  0
 18 19  1  0
 19 20  1  0
 20 21  2  0
 20 22  1  0
 19 23  2  0
 12  4  1  0
 23 16  1  0
 11  6  1  0
  3 24  1  0
  3 25  1  0
  5 26  1  0
  7 27  1  0
  8 28  1  0
  9 29  1  0
 10 30  1  0
 13 31  1  0
 14 32  1  0
 14 33  1  0
 15 34  1  0
 15 35  1  0
 17 36  1  0
 22 37  1  0
 23 38  1  0
M  END
>  <Energy>  (22) 
90.145085876479314

>  <compound_id>  (22) 
46107

>  <target_id>  (22) 
1

>  <reference_id>  (22) 
8

>  <inspiration_ids>  (22) 
[35, 8]

>  <energy_score>  (22) 
5.338849902565244

>  <distance_score>  (22) 
15.4784612459449

>  <path>  (22) 
/opt/xchem-fragalysis-2/maxwin/BulkDock/SCRATCH/511023/C46107-P8/C46107-P8.minimised.mol

>  <scratch_subdir>  (22) 
/opt/xchem-fragalysis-2/maxwin/BulkDock/SCRATCH/511023/C46107-P8

>  <fragmenstein_runtime>  (22) 
27.912302255630493

>  <fragmenstein_outcome>  (22) 
too moved

>  <fragmenstein_mode>  (22) 
expansion

>  <fragmenstein_error>  (22) 


$$$$
C46110-P35
     RDKit          3D

 35 37  0  0  0  0  0  0  0  0999 V2000
   -4.9571  -17.9375   20.9944 O   0  0  0  0  0  0  0  0  0  0  0  0
   -4.4651  -17.1204   20.2268 C   0  0  0  0  0  0  0  0  0  0  0  0
   -3.4649  -17.5074   19.3946 O   0  0  0  0  0  0  0  0  0  0  0  0
   -4.8436  -15.7175   20.0928 C   0  0  0  0  0  0  0  0  0  0  0  0
   -4.1583  -14.7421   19.3886 C   0  0  0  0  0  0  0  0  0  0  0  0
   -4.8496  -13.5667   19.5651 N   0  0  0  0  0  0  0  0  0  0  0  0
   -4.5310  -12.2805   18.9290 C   0  0  0  0  0  0  0  0  0  0  0  0
   -3.4518  -11.3099   19.5758 C   0  0  0  0  0  0  0  0  0  0  0  0
   -2.7672  -10.2378   18.7645 N   0  0  0  0  0  0  0  0  0  0  0  0
   -2.1953   -8.9316   19.1709 C   0  0  0  0  0  0  0  0  0  0  0  0
   -2.2092   -8.3727   20.2307 O   0  0  0  0  0  0  0  0  0  0  0  0
   -1.4170   -8.2341   18.0812 C   0  0  0  0  0  0  0  0  0  0  0  0
   -1.5990   -8.2413   16.7024 C   0  0  0  0  0  0  0  0  0  0  0  0
   -0.5861   -7.6267   16.0071 N   0  0  0  0  0  0  0  0  0  0  0  0
    0.1947   -7.1150   16.9266 C   0  0  0  0  0  0  0  0  0  0  0  0
    1.3884   -6.3364   16.7800 C   0  0  0  0  0  0  0  0  0  0  0  0
    1.9489   -5.7563   17.8554 C   0  0  0  0  0  0  0  0  0  0  0  0
    1.3562   -5.9224   19.1687 C   0  0  0  0  0  0  0  0  0  0  0  0
    0.2993   -6.7454   19.3302 C   0  0  0  0  0  0  0  0  0  0  0  0
   -0.2953   -7.3622   18.2187 N   0  0  0  0  0  0  0  0  0  0  0  0
   -5.9689  -13.8890   20.3030 C   0  0  0  0  0  0  0  0  0  0  0  0
   -5.9596  -15.1506   20.6902 N   0  0  0  0  0  0  0  0  0  0  0  0
   -3.3339  -18.4437   19.6450 H   0  0  0  0  0  0  0  0  0  0  0  0
   -3.2525  -14.7979   18.7997 H   0  0  0  0  0  0  0  0  0  0  0  0
   -5.4754  -11.7341   18.8198 H   0  0  0  0  0  0  0  0  0  0  0  0
   -4.1974  -12.5300   17.9136 H   0  0  0  0  0  0  0  0  0  0  0  0
   -2.6290  -11.9192   19.9647 H   0  0  0  0  0  0  0  0  0  0  0  0
   -3.9020  -10.7915   20.4267 H   0  0  0  0  0  0  0  0  0  0  0  0
   -2.4952  -10.4364   17.8119 H   0  0  0  0  0  0  0  0  0  0  0  0
   -2.4029   -8.7260   16.1630 H   0  0  0  0  0  0  0  0  0  0  0  0
    1.8016   -6.2131   15.7860 H   0  0  0  0  0  0  0  0  0  0  0  0
    2.8438   -5.1491   17.7689 H   0  0  0  0  0  0  0  0  0  0  0  0
    1.7921   -5.3912   20.0077 H   0  0  0  0  0  0  0  0  0  0  0  0
   -0.1552   -6.9323   20.2957 H   0  0  0  0  0  0  0  0  0  0  0  0
   -6.7291  -13.1585   20.5521 H   0  0  0  0  0  0  0  0  0  0  0  0
  1  2  2  0
  2  3  1  0
  2  4  1  0
  4  5  2  0
  5  6  1  0
  6  7  1  0
  7  8  1  0
  8  9  1  0
  9 10  1  0
 10 11  2  0
 10 12  1  0
 12 13  2  0
 13 14  1  0
 14 15  2  0
 15 16  1  0
 16 17  2  0
 17 18  1  0
 18 19  2  0
 19 20  1  0
  6 21  1  0
 21 22  2  0
 22  4  1  0
 20 12  1  0
 20 15  1  0
  3 23  1  0
  5 24  1  0
  7 25  1  0
  7 26  1  0
  8 27  1  0
  8 28  1  0
  9 29  1  0
 13 30  1  0
 16 31  1  0
 17 32  1  0
 18 33  1  0
 19 34  1  0
 21 35  1  0
M  END
>  <Energy>  (23) 
30.929910737083542

>  <compound_id>  (23) 
46110

>  <target_id>  (23) 
1

>  <reference_id>  (23) 
35

>  <inspiration_ids>  (23) 
[35, 8]

>  <energy_score>  (23) 
-24.29726982879231

>  <distance_score>  (23) 
16.186184636849013

>  <path>  (23) 
/opt/xchem-fragalysis-2/maxwin/BulkDock/SCRATCH/511023/C46110-P35/C46110-P35.minimised.mol

>  <scratch_subdir>  (23) 
/opt/xchem-fragalysis-2/maxwin/BulkDock/SCRATCH/511023/C46110-P35

>  <fragmenstein_runtime>  (23) 
20.237763166427612

>  <fragmenstein_outcome>  (23) 
too moved

>  <fragmenstein_mode>  (23) 
expansion

>  <fragmenstein_error>  (23) 


$$$$
C46110-P8
     RDKit          3D

 35 37  0  0  0  0  0  0  0  0999 V2000
    1.8186  -20.8689   27.8233 O   0  0  0  0  0  0  0  0  0  0  0  0
    2.1489  -19.7309   27.5192 C   0  0  0  0  0  0  0  0  0  0  0  0
    2.1549  -18.7703   28.4795 O   0  0  0  0  0  0  0  0  0  0  0  0
    2.5458  -19.2579   26.1951 C   0  0  0  0  0  0  0  0  0  0  0  0
    2.9604  -17.9756   25.8741 C   0  0  0  0  0  0  0  0  0  0  0  0
    3.1366  -17.6870   24.3840 N   0  0  0  0  0  0  0  0  0  0  0  0
    3.7636  -16.0216   23.4765 C   0  0  0  0  0  0  0  0  0  0  0  0
    3.2336  -14.3149   22.4485 C   0  0  0  0  0  0  0  0  0  0  0  0
    4.3291  -13.3796   21.1045 N   0  0  0  0  0  0  0  0  0  0  0  0
    4.9075  -12.1134   21.0923 C   0  0  0  0  0  0  0  0  0  0  0  0
    4.8192  -11.2076   21.8710 O   0  0  0  0  0  0  0  0  0  0  0  0
    5.8719  -12.0516   19.8791 C   0  0  0  0  0  0  0  0  0  0  0  0
    5.7322  -12.4700   18.5540 C   0  0  0  0  0  0  0  0  0  0  0  0
    6.8247  -12.2034   17.7739 N   0  0  0  0  0  0  0  0  0  0  0  0
    7.7253  -11.7541   18.6068 C   0  0  0  0  0  0  0  0  0  0  0  0
    9.0915  -11.4252   18.3759 C   0  0  0  0  0  0  0  0  0  0  0  0
    9.8959  -11.1304   19.4129 C   0  0  0  0  0  0  0  0  0  0  0  0
    9.3858  -11.0854   20.7658 C   0  0  0  0  0  0  0  0  0  0  0  0
    8.0904  -11.3752   20.9826 C   0  0  0  0  0  0  0  0  0  0  0  0
    7.2376  -11.6856   19.9138 N   0  0  0  0  0  0  0  0  0  0  0  0
    3.0914  -19.3071   24.1496 C   0  0  0  0  0  0  0  0  0  0  0  0
    2.6206  -20.0548   25.1186 N   0  0  0  0  0  0  0  0  0  0  0  0
    1.8789  -19.2765   29.2714 H   0  0  0  0  0  0  0  0  0  0  0  0
    3.1023  -17.1927   26.6029 H   0  0  0  0  0  0  0  0  0  0  0  0
    2.7750  -15.6279   23.5861 H   0  0  0  0  0  0  0  0  0  0  0  0
    4.4569  -15.6765   24.2702 H   0  0  0  0  0  0  0  0  0  0  0  0
    3.0304  -13.5334   23.2154 H   0  0  0  0  0  0  0  0  0  0  0  0
    2.7923  -14.5933   21.5103 H   0  0  0  0  0  0  0  0  0  0  0  0
    4.5589  -13.8485   20.2437 H   0  0  0  0  0  0  0  0  0  0  0  0
    4.8427  -12.9008   18.1107 H   0  0  0  0  0  0  0  0  0  0  0  0
    9.4633  -11.4607   17.3571 H   0  0  0  0  0  0  0  0  0  0  0  0
   10.9500  -10.9281   19.2549 H   0  0  0  0  0  0  0  0  0  0  0  0
   10.0631  -10.8389   21.5768 H   0  0  0  0  0  0  0  0  0  0  0  0
    7.6611  -11.3740   21.9756 H   0  0  0  0  0  0  0  0  0  0  0  0
    3.3814  -19.6555   23.1572 H   0  0  0  0  0  0  0  0  0  0  0  0
  1  2  2  0
  2  3  1  0
  2  4  1  0
  4  5  2  0
  5  6  1  0
  6  7  1  0
  7  8  1  0
  8  9  1  0
  9 10  1  0
 10 11  2  0
 10 12  1  0
 12 13  2  0
 13 14  1  0
 14 15  2  0
 15 16  1  0
 16 17  2  0
 17 18  1  0
 18 19  2  0
 19 20  1  0
  6 21  1  0
 21 22  2  0
 22  4  1  0
 20 12  1  0
 20 15  1  0
  3 23  1  0
  5 24  1  0
  7 25  1  0
  7 26  1  0
  8 27  1  0
  8 28  1  0
  9 29  1  0
 13 30  1  0
 16 31  1  0
 17 32  1  0
 18 33  1  0
 19 34  1  0
 21 35  1  0
M  END
>  <Energy>  (24) 
378.64249016285919

>  <compound_id>  (24) 
46110

>  <target_id>  (24) 
1

>  <reference_id>  (24) 
8

>  <inspiration_ids>  (24) 
[35, 8]

>  <energy_score>  (24) 
323.41530959698434

>  <distance_score>  (24) 
14.59070469263662

>  <path>  (24) 
/opt/xchem-fragalysis-2/maxwin/BulkDock/SCRATCH/511023/C46110-P8/C46110-P8.minimised.mol

>  <scratch_subdir>  (24) 
/opt/xchem-fragalysis-2/maxwin/BulkDock/SCRATCH/511023/C46110-P8

>  <fragmenstein_runtime>  (24) 
17.81743025779724

>  <fragmenstein_outcome>  (24) 
too moved

>  <fragmenstein_mode>  (24) 
expansion

>  <fragmenstein_error>  (24) 


$$$$
C46111-P35
     RDKit          3D

 38 40  0  0  0  0  0  0  0  0999 V2000
    8.4722  -13.7297   24.2276 O   0  0  0  0  0  0  0  0  0  0  0  0
    8.1167  -12.8081   24.9103 C   0  0  0  0  0  0  0  0  0  0  0  0
    7.1808  -13.1112   26.1529 C   0  0  0  0  0  0  0  0  0  0  0  0
    6.4035  -14.3949   26.2927 N   0  0  0  0  0  0  0  0  0  0  0  0
    5.5717  -14.6772   27.3663 C   0  0  0  0  0  0  0  0  0  0  0  0
    5.0047  -15.8605   27.2770 N   0  0  0  0  0  0  0  0  0  0  0  0
    5.4637  -16.3937   26.0847 C   0  0  0  0  0  0  0  0  0  0  0  0
    5.0283  -17.6909   25.5724 C   0  0  0  0  0  0  0  0  0  0  0  0
    4.3994  -18.5365   26.1940 O   0  0  0  0  0  0  0  0  0  0  0  0
    5.3338  -17.9202   24.2661 O   0  0  0  0  0  0  0  0  0  0  0  0
    6.3358  -15.5005   25.4841 C   0  0  0  0  0  0  0  0  0  0  0  0
    8.4338  -11.3567   24.8165 N   0  0  0  0  0  0  0  0  0  0  0  0
    9.3729  -10.6089   23.9019 C   0  0  0  0  0  0  0  0  0  0  0  0
    9.4351   -9.0449   24.0477 C   0  0  0  0  0  0  0  0  0  0  0  0
   10.4188   -8.2348   23.2144 C   0  0  0  0  0  0  0  0  0  0  0  0
   11.7353   -8.4886   22.8717 C   0  0  0  0  0  0  0  0  0  0  0  0
   12.2366   -7.3219   22.3350 N   0  0  0  0  0  0  0  0  0  0  0  0
   13.5286   -7.0194   21.9017 C   0  0  0  0  0  0  0  0  0  0  0  0
   13.7919   -5.7916   21.4209 C   0  0  0  0  0  0  0  0  0  0  0  0
   12.7197   -4.8136   21.3816 C   0  0  0  0  0  0  0  0  0  0  0  0
   11.4820   -5.1083   21.8263 C   0  0  0  0  0  0  0  0  0  0  0  0
   11.1912   -6.4095   22.3230 C   0  0  0  0  0  0  0  0  0  0  0  0
   10.0893   -6.9376   22.8252 N   0  0  0  0  0  0  0  0  0  0  0  0
    6.4282  -12.3220   26.2187 H   0  0  0  0  0  0  0  0  0  0  0  0
    7.8143  -13.0774   27.0473 H   0  0  0  0  0  0  0  0  0  0  0  0
    5.4309  -13.9779   28.1796 H   0  0  0  0  0  0  0  0  0  0  0  0
    4.9060  -18.7943   24.1206 H   0  0  0  0  0  0  0  0  0  0  0  0
    6.8924  -15.5741   24.5605 H   0  0  0  0  0  0  0  0  0  0  0  0
    8.0268  -10.8751   25.6097 H   0  0  0  0  0  0  0  0  0  0  0  0
   10.3654  -11.0374   24.0804 H   0  0  0  0  0  0  0  0  0  0  0  0
    9.0909  -10.8812   22.8789 H   0  0  0  0  0  0  0  0  0  0  0  0
    8.4315   -8.6437   23.8797 H   0  0  0  0  0  0  0  0  0  0  0  0
    9.6609   -8.8262   25.1003 H   0  0  0  0  0  0  0  0  0  0  0  0
   12.3688   -9.3499   23.0276 H   0  0  0  0  0  0  0  0  0  0  0  0
   14.2749   -7.8006   21.9715 H   0  0  0  0  0  0  0  0  0  0  0  0
   14.7797   -5.5056   21.0759 H   0  0  0  0  0  0  0  0  0  0  0  0
   12.9479   -3.8206   21.0058 H   0  0  0  0  0  0  0  0  0  0  0  0
   10.6936   -4.3691   21.8264 H   0  0  0  0  0  0  0  0  0  0  0  0
  1  2  2  0
  2  3  1  0
  3  4  1  0
  4  5  1  0
  5  6  2  0
  6  7  1  0
  7  8  1  0
  8  9  2  0
  8 10  1  0
  7 11  2  0
  2 12  1  0
 12 13  1  0
 13 14  1  0
 14 15  1  0
 15 16  2  0
 16 17  1  0
 17 18  1  0
 18 19  2  0
 19 20  1  0
 20 21  2  0
 21 22  1  0
 22 23  2  0
 11  4  1  0
 23 15  1  0
 22 17  1  0
  3 24  1  0
  3 25  1  0
  5 26  1  0
 10 27  1  0
 11 28  1  0
 12 29  1  0
 13 30  1  0
 13 31  1  0
 14 32  1  0
 14 33  1  0
 16 34  1  0
 18 35  1  0
 19 36  1  0
 20 37  1  0
 21 38  1  0
M  END
>  <Energy>  (25) 
75.980526118755847

>  <compound_id>  (25) 
46111

>  <target_id>  (25) 
1

>  <reference_id>  (25) 
35

>  <inspiration_ids>  (25) 
[35, 8]

>  <energy_score>  (25) 
-4.027510261960401

>  <distance_score>  (25) 
14.691627304734514

>  <path>  (25) 
/opt/xchem-fragalysis-2/maxwin/BulkDock/SCRATCH/511023/C46111-P35/C46111-P35.minimised.mol

>  <scratch_subdir>  (25) 
/opt/xchem-fragalysis-2/maxwin/BulkDock/SCRATCH/511023/C46111-P35

>  <fragmenstein_runtime>  (25) 
25.464588165283203

>  <fragmenstein_outcome>  (25) 
too moved

>  <fragmenstein_mode>  (25) 
expansion

>  <fragmenstein_error>  (25) 


$$$$
C46111-P8
     RDKit          3D

 38 40  0  0  0  0  0  0  0  0999 V2000
    4.6033  -15.8539   13.3986 O   0  0  0  0  0  0  0  0  0  0  0  0
    3.7614  -14.9979   13.4265 C   0  0  0  0  0  0  0  0  0  0  0  0
    2.2781  -15.4286   13.6705 C   0  0  0  0  0  0  0  0  0  0  0  0
    2.0112  -16.8719   13.9202 N   0  0  0  0  0  0  0  0  0  0  0  0
    2.6463  -17.6966   14.8101 C   0  0  0  0  0  0  0  0  0  0  0  0
    2.0950  -18.8892   14.8817 N   0  0  0  0  0  0  0  0  0  0  0  0
    1.0955  -18.8941   13.9228 C   0  0  0  0  0  0  0  0  0  0  0  0
    0.2679  -20.0731   13.6355 C   0  0  0  0  0  0  0  0  0  0  0  0
    0.5886  -21.2261   13.8913 O   0  0  0  0  0  0  0  0  0  0  0  0
   -0.9303  -19.7965   13.0433 O   0  0  0  0  0  0  0  0  0  0  0  0
    1.0070  -17.6311   13.3497 C   0  0  0  0  0  0  0  0  0  0  0  0
    3.8750  -13.5377   13.2778 N   0  0  0  0  0  0  0  0  0  0  0  0
    5.0637  -12.6689   13.1477 C   0  0  0  0  0  0  0  0  0  0  0  0
    5.0133  -11.3821   12.2605 C   0  0  0  0  0  0  0  0  0  0  0  0
    4.7058  -10.1028   12.9692 C   0  0  0  0  0  0  0  0  0  0  0  0
    5.4407   -9.4796   13.9469 C   0  0  0  0  0  0  0  0  0  0  0  0
    4.6349   -8.5125   14.4692 N   0  0  0  0  0  0  0  0  0  0  0  0
    4.7365   -7.7857   15.6501 C   0  0  0  0  0  0  0  0  0  0  0  0
    3.7728   -6.9173   15.9739 C   0  0  0  0  0  0  0  0  0  0  0  0
    2.6818   -6.6996   15.0356 C   0  0  0  0  0  0  0  0  0  0  0  0
    2.5920   -7.4011   13.8888 C   0  0  0  0  0  0  0  0  0  0  0  0
    3.5589   -8.4051   13.6005 C   0  0  0  0  0  0  0  0  0  0  0  0
    3.5888   -9.3524   12.6861 N   0  0  0  0  0  0  0  0  0  0  0  0
    1.8746  -14.9094   14.5428 H   0  0  0  0  0  0  0  0  0  0  0  0
    1.6953  -15.1562   12.7837 H   0  0  0  0  0  0  0  0  0  0  0  0
    3.5240  -17.3683   15.3372 H   0  0  0  0  0  0  0  0  0  0  0  0
   -1.1041  -18.8398   13.0201 H   0  0  0  0  0  0  0  0  0  0  0  0
    0.3669  -17.2168   12.5842 H   0  0  0  0  0  0  0  0  0  0  0  0
    2.9666  -13.1154   13.4399 H   0  0  0  0  0  0  0  0  0  0  0  0
    5.3703  -12.4239   14.1695 H   0  0  0  0  0  0  0  0  0  0  0  0
    5.8438  -13.3239   12.7408 H   0  0  0  0  0  0  0  0  0  0  0  0
    5.9991  -11.2587   11.7931 H   0  0  0  0  0  0  0  0  0  0  0  0
    4.2952  -11.5365   11.4467 H   0  0  0  0  0  0  0  0  0  0  0  0
    6.3752   -9.7761   14.3764 H   0  0  0  0  0  0  0  0  0  0  0  0
    5.5770   -7.9285   16.2938 H   0  0  0  0  0  0  0  0  0  0  0  0
    3.8645   -6.3080   16.8645 H   0  0  0  0  0  0  0  0  0  0  0  0
    1.9514   -5.9294   15.2622 H   0  0  0  0  0  0  0  0  0  0  0  0
    1.7854   -7.2421   13.1827 H   0  0  0  0  0  0  0  0  0  0  0  0
  1  2  2  0
  2  3  1  0
  3  4  1  0
  4  5  1  0
  5  6  2  0
  6  7  1  0
  7  8  1  0
  8  9  2  0
  8 10  1  0
  7 11  2  0
  2 12  1  0
 12 13  1  0
 13 14  1  0
 14 15  1  0
 15 16  2  0
 16 17  1  0
 17 18  1  0
 18 19  2  0
 19 20  1  0
 20 21  2  0
 21 22  1  0
 22 23  2  0
 11  4  1  0
 23 15  1  0
 22 17  1  0
  3 24  1  0
  3 25  1  0
  5 26  1  0
 10 27  1  0
 11 28  1  0
 12 29  1  0
 13 30  1  0
 13 31  1  0
 14 32  1  0
 14 33  1  0
 16 34  1  0
 18 35  1  0
 19 36  1  0
 20 37  1  0
 21 38  1  0
M  END
>  <Energy>  (26) 
78.364882472205224

>  <compound_id>  (26) 
46111

>  <target_id>  (26) 
1

>  <reference_id>  (26) 
8

>  <inspiration_ids>  (26) 
[35, 8]

>  <energy_score>  (26) 
-1.643153908512545

>  <distance_score>  (26) 
17.24775631000876

>  <path>  (26) 
/opt/xchem-fragalysis-2/maxwin/BulkDock/SCRATCH/511023/C46111-P8/C46111-P8.minimised.mol

>  <scratch_subdir>  (26) 
/opt/xchem-fragalysis-2/maxwin/BulkDock/SCRATCH/511023/C46111-P8

>  <fragmenstein_runtime>  (26) 
21.681450605392456

>  <fragmenstein_outcome>  (26) 
too moved

>  <fragmenstein_mode>  (26) 
expansion

>  <fragmenstein_error>  (26) 


$$$$
C46113-P35
     RDKit          3D

 44 47  0  0  0  0  0  0  0  0999 V2000
    3.0844   -4.3741   29.6150 O   0  0  0  0  0  0  0  0  0  0  0  0
    2.7257   -4.2516   28.5066 C   0  0  0  0  0  0  0  0  0  0  0  0
    3.4334   -3.6568   27.3222 N   0  0  0  0  0  0  0  0  0  0  0  0
    4.7205   -2.9770   27.2269 C   0  0  0  0  0  0  0  0  0  0  0  0
    5.4602   -3.1263   25.9217 C   0  0  0  0  0  0  0  0  0  0  0  0
    6.8265   -2.9983   25.6964 C   0  0  0  0  0  0  0  0  0  0  0  0
    7.0296   -3.3102   24.3772 N   0  0  0  0  0  0  0  0  0  0  0  0
    8.2183   -3.4575   23.6641 C   0  0  0  0  0  0  0  0  0  0  0  0
    8.1585   -3.8918   22.3954 C   0  0  0  0  0  0  0  0  0  0  0  0
    6.8485   -4.1739   21.8199 C   0  0  0  0  0  0  0  0  0  0  0  0
    5.7079   -3.9660   22.4928 C   0  0  0  0  0  0  0  0  0  0  0  0
    5.7697   -3.5432   23.8397 C   0  0  0  0  0  0  0  0  0  0  0  0
    4.8165   -3.3995   24.7351 N   0  0  0  0  0  0  0  0  0  0  0  0
    1.3909   -4.5533   27.8878 N   0  0  0  0  0  0  0  0  0  0  0  0
    0.1184   -4.9950   28.5021 C   0  0  0  0  0  0  0  0  0  0  0  0
   -0.3784   -6.3243   27.9314 C   0  0  0  0  0  0  0  0  0  0  0  0
   -1.2414   -6.9638   28.9991 C   0  0  0  0  0  0  0  0  0  0  0  0
   -0.9325   -6.3267   30.3331 C   0  0  0  0  0  0  0  0  0  0  0  0
    0.1027   -5.2281   30.0427 C   0  0  0  0  0  0  0  0  0  0  0  0
   -0.1549   -4.0111   30.7980 N   0  0  0  0  0  0  0  0  0  0  0  0
    0.6856   -3.4406   31.7139 C   0  0  0  0  0  0  0  0  0  0  0  0
    0.0149   -2.3335   32.1768 C   0  0  0  0  0  0  0  0  0  0  0  0
   -1.2104   -2.2212   31.5744 N   0  0  0  0  0  0  0  0  0  0  0  0
   -1.2833   -3.2395   30.7482 C   0  0  0  0  0  0  0  0  0  0  0  0
    2.8714   -3.7850   26.4992 H   0  0  0  0  0  0  0  0  0  0  0  0
    5.3401   -3.3330   28.0571 H   0  0  0  0  0  0  0  0  0  0  0  0
    4.5204   -1.9138   27.3985 H   0  0  0  0  0  0  0  0  0  0  0  0
    7.6463   -2.7765   26.3646 H   0  0  0  0  0  0  0  0  0  0  0  0
    9.1453   -3.2435   24.1822 H   0  0  0  0  0  0  0  0  0  0  0  0
    9.0658   -4.0476   21.8231 H   0  0  0  0  0  0  0  0  0  0  0  0
    6.7457   -4.5624   20.8158 H   0  0  0  0  0  0  0  0  0  0  0  0
    4.7376   -4.1725   22.0544 H   0  0  0  0  0  0  0  0  0  0  0  0
    1.3947   -4.2543   26.9265 H   0  0  0  0  0  0  0  0  0  0  0  0
   -0.6077   -4.2188   28.2310 H   0  0  0  0  0  0  0  0  0  0  0  0
    0.4473   -6.9909   27.6932 H   0  0  0  0  0  0  0  0  0  0  0  0
   -0.9304   -6.1786   26.9961 H   0  0  0  0  0  0  0  0  0  0  0  0
   -1.0024   -8.0267   29.0423 H   0  0  0  0  0  0  0  0  0  0  0  0
   -2.2953   -6.7975   28.7604 H   0  0  0  0  0  0  0  0  0  0  0  0
   -0.5257   -7.0602   31.0387 H   0  0  0  0  0  0  0  0  0  0  0  0
   -1.8525   -5.9444   30.7894 H   0  0  0  0  0  0  0  0  0  0  0  0
    1.0771   -5.5949   30.3795 H   0  0  0  0  0  0  0  0  0  0  0  0
    1.6641   -3.8413   31.9420 H   0  0  0  0  0  0  0  0  0  0  0  0
    0.3512   -1.6116   32.9095 H   0  0  0  0  0  0  0  0  0  0  0  0
   -2.1254   -3.4593   30.1047 H   0  0  0  0  0  0  0  0  0  0  0  0
  1  2  2  0
  2  3  1  0
  3  4  1  0
  4  5  1  0
  5  6  2  0
  6  7  1  0
  7  8  1  0
  8  9  2  0
  9 10  1  0
 10 11  2  0
 11 12  1  0
 12 13  2  0
  2 14  1  0
 14 15  1  0
 15 16  1  0
 16 17  1  0
 17 18  1  0
 18 19  1  0
 19 20  1  0
 20 21  1  0
 21 22  2  0
 22 23  1  0
 23 24  2  0
 13  5  1  0
 19 15  1  0
 24 20  1  0
 12  7  1  0
  3 25  1  0
  4 26  1  0
  4 27  1  0
  6 28  1  0
  8 29  1  0
  9 30  1  0
 10 31  1  0
 11 32  1  0
 14 33  1  0
 15 34  1  0
 16 35  1  0
 16 36  1  0
 17 37  1  0
 17 38  1  0
 18 39  1  0
 18 40  1  0
 19 41  1  0
 21 42  1  0
 22 43  1  0
 24 44  1  0
M  END
>  <Energy>  (27) 
-19.499067073125737

>  <compound_id>  (27) 
46113

>  <target_id>  (27) 
1

>  <reference_id>  (27) 
35

>  <inspiration_ids>  (27) 
[35, 8]

>  <energy_score>  (27) 
-9.459550605222148

>  <distance_score>  (27) 
17.43340328671113

>  <path>  (27) 
/opt/xchem-fragalysis-2/maxwin/BulkDock/SCRATCH/511023/C46113-P35/C46113-P35.minimised.mol

>  <scratch_subdir>  (27) 
/opt/xchem-fragalysis-2/maxwin/BulkDock/SCRATCH/511023/C46113-P35

>  <fragmenstein_runtime>  (27) 
33.42466187477112

>  <fragmenstein_outcome>  (27) 
too moved

>  <fragmenstein_mode>  (27) 
expansion

>  <fragmenstein_error>  (27) 


$$$$
C46113-P8
     RDKit          3D

 44 47  0  0  0  0  0  0  0  0999 V2000
   -2.1962  -11.2865   19.0393 O   0  0  0  0  0  0  0  0  0  0  0  0
   -1.3604  -11.9648   18.5744 C   0  0  0  0  0  0  0  0  0  0  0  0
   -0.0885  -11.5727   17.8349 N   0  0  0  0  0  0  0  0  0  0  0  0
    0.4038  -10.2516   17.4077 C   0  0  0  0  0  0  0  0  0  0  0  0
    1.8282   -9.7628   17.6865 C   0  0  0  0  0  0  0  0  0  0  0  0
    2.5438   -9.6357   18.8688 C   0  0  0  0  0  0  0  0  0  0  0  0
    3.5985   -8.7819   18.6105 N   0  0  0  0  0  0  0  0  0  0  0  0
    4.5336   -8.2199   19.4821 C   0  0  0  0  0  0  0  0  0  0  0  0
    5.3918   -7.2967   19.0178 C   0  0  0  0  0  0  0  0  0  0  0  0
    5.3319   -6.9341   17.6144 C   0  0  0  0  0  0  0  0  0  0  0  0
    4.4696   -7.5222   16.7656 C   0  0  0  0  0  0  0  0  0  0  0  0
    3.5296   -8.4654   17.2615 C   0  0  0  0  0  0  0  0  0  0  0  0
    2.5094   -9.0640   16.6827 N   0  0  0  0  0  0  0  0  0  0  0  0
   -1.2415  -13.4724   18.5472 N   0  0  0  0  0  0  0  0  0  0  0  0
   -2.0832  -14.5235   19.1800 C   0  0  0  0  0  0  0  0  0  0  0  0
   -3.6034  -14.2735   19.1960 C   0  0  0  0  0  0  0  0  0  0  0  0
   -4.2247  -15.6007   19.6751 C   0  0  0  0  0  0  0  0  0  0  0  0
   -3.2309  -16.6879   19.2623 C   0  0  0  0  0  0  0  0  0  0  0  0
   -2.0919  -15.9331   18.5406 C   0  0  0  0  0  0  0  0  0  0  0  0
   -0.8465  -16.6552   18.4836 N   0  0  0  0  0  0  0  0  0  0  0  0
   -0.3652  -17.3027   17.3748 C   0  0  0  0  0  0  0  0  0  0  0  0
    0.8138  -17.8798   17.7793 C   0  0  0  0  0  0  0  0  0  0  0  0
    1.0585  -17.6015   19.0953 N   0  0  0  0  0  0  0  0  0  0  0  0
    0.0483  -16.8554   19.4910 C   0  0  0  0  0  0  0  0  0  0  0  0
    0.3667  -12.3990   17.4956 H   0  0  0  0  0  0  0  0  0  0  0  0
   -0.2842   -9.5125   17.8353 H   0  0  0  0  0  0  0  0  0  0  0  0
    0.2495  -10.2304   16.3223 H   0  0  0  0  0  0  0  0  0  0  0  0
    2.3275   -9.9696   19.8748 H   0  0  0  0  0  0  0  0  0  0  0  0
    4.4930   -8.5332   20.5176 H   0  0  0  0  0  0  0  0  0  0  0  0
    6.1053   -6.8119   19.6692 H   0  0  0  0  0  0  0  0  0  0  0  0
    6.0231   -6.1887   17.2565 H   0  0  0  0  0  0  0  0  0  0  0  0
    4.4266   -7.2817   15.7125 H   0  0  0  0  0  0  0  0  0  0  0  0
   -0.3583  -13.7291   18.1405 H   0  0  0  0  0  0  0  0  0  0  0  0
   -1.7287  -14.5853   20.2141 H   0  0  0  0  0  0  0  0  0  0  0  0
   -3.8992  -13.4139   19.7965 H   0  0  0  0  0  0  0  0  0  0  0  0
   -3.9501  -14.0581   18.1759 H   0  0  0  0  0  0  0  0  0  0  0  0
   -4.3611  -15.6181   20.7593 H   0  0  0  0  0  0  0  0  0  0  0  0
   -5.2078  -15.7561   19.2193 H   0  0  0  0  0  0  0  0  0  0  0  0
   -2.8718  -17.2400   20.1355 H   0  0  0  0  0  0  0  0  0  0  0  0
   -3.6964  -17.4196   18.5925 H   0  0  0  0  0  0  0  0  0  0  0  0
   -2.3963  -15.8019   17.4901 H   0  0  0  0  0  0  0  0  0  0  0  0
   -0.8835  -17.3080   16.4263 H   0  0  0  0  0  0  0  0  0  0  0  0
    1.4961  -18.4823   17.1945 H   0  0  0  0  0  0  0  0  0  0  0  0
   -0.0790  -16.4441   20.4850 H   0  0  0  0  0  0  0  0  0  0  0  0
  1  2  2  0
  2  3  1  0
  3  4  1  0
  4  5  1  0
  5  6  2  0
  6  7  1  0
  7  8  1  0
  8  9  2  0
  9 10  1  0
 10 11  2  0
 11 12  1  0
 12 13  2  0
  2 14  1  0
 14 15  1  0
 15 16  1  0
 16 17  1  0
 17 18  1  0
 18 19  1  0
 19 20  1  0
 20 21  1  0
 21 22  2  0
 22 23  1  0
 23 24  2  0
 13  5  1  0
 19 15  1  0
 24 20  1  0
 12  7  1  0
  3 25  1  0
  4 26  1  0
  4 27  1  0
  6 28  1  0
  8 29  1  0
  9 30  1  0
 10 31  1  0
 11 32  1  0
 14 33  1  0
 15 34  1  0
 16 35  1  0
 16 36  1  0
 17 37  1  0
 17 38  1  0
 18 39  1  0
 18 40  1  0
 19 41  1  0
 21 42  1  0
 22 43  1  0
 24 44  1  0
M  END
>  <Energy>  (28) 
-9.7037721497572225

>  <compound_id>  (28) 
46113

>  <target_id>  (28) 
1

>  <reference_id>  (28) 
8

>  <inspiration_ids>  (28) 
[35, 8]

>  <energy_score>  (28) 
0.33574431814597006

>  <distance_score>  (28) 
16.314766663863015

>  <path>  (28) 
/opt/xchem-fragalysis-2/maxwin/BulkDock/SCRATCH/511023/C46113-P8/C46113-P8.minimised.mol

>  <scratch_subdir>  (28) 
/opt/xchem-fragalysis-2/maxwin/BulkDock/SCRATCH/511023/C46113-P8

>  <fragmenstein_runtime>  (28) 
40.22645354270935

>  <fragmenstein_outcome>  (28) 
too moved

>  <fragmenstein_mode>  (28) 
expansion

>  <fragmenstein_error>  (28) 


$$$$
C46117-P35
     RDKit          3D

 40 43  0  0  0  0  0  0  0  0999 V2000
    7.8604  -13.0084   20.9908 O   0  0  0  0  0  0  0  0  0  0  0  0
    6.6989  -13.0231   20.6156 C   0  0  0  0  0  0  0  0  0  0  0  0
    6.2039  -12.1326   19.4506 C   0  0  0  0  0  0  0  0  0  0  0  0
    7.3329  -11.6446   18.5420 C   0  0  0  0  0  0  0  0  0  0  0  0
    7.3034  -11.4321   17.1740 C   0  0  0  0  0  0  0  0  0  0  0  0
    8.6188  -11.3406   16.7760 N   0  0  0  0  0  0  0  0  0  0  0  0
    9.1607  -11.3340   15.4964 C   0  0  0  0  0  0  0  0  0  0  0  0
   10.4927  -11.3993   15.3434 C   0  0  0  0  0  0  0  0  0  0  0  0
   11.3313  -11.4799   16.5242 C   0  0  0  0  0  0  0  0  0  0  0  0
   10.7995  -11.4834   17.7631 C   0  0  0  0  0  0  0  0  0  0  0  0
    9.3847  -11.4024   17.9269 C   0  0  0  0  0  0  0  0  0  0  0  0
    8.6205  -11.4257   18.9974 N   0  0  0  0  0  0  0  0  0  0  0  0
    5.3002  -13.8639   21.2641 N   0  0  0  0  0  0  0  0  0  0  0  0
    5.0187  -15.1037   23.0788 N   0  0  0  0  0  0  0  0  0  0  0  0
    3.9169  -15.5713   23.6519 C   0  0  0  0  0  0  0  0  0  0  0  0
    2.8392  -15.3099   23.3674 O   0  0  0  0  0  0  0  0  0  0  0  0
    3.9188  -17.0596   25.0248 C   0  0  0  0  0  0  0  0  0  0  0  0
    3.5874  -18.5122   25.1565 C   0  0  0  0  0  0  0  0  0  0  0  0
    2.4009  -18.1129   24.9787 N   0  0  0  0  0  0  0  0  0  0  0  0
    2.2450  -17.7910   26.4826 C   0  0  0  0  0  0  0  0  0  0  0  0
    0.3353  -17.7631   27.1051 C   0  0  0  0  0  0  0  0  0  0  0  0
   -0.9658  -18.9612   26.7317 C   0  0  0  0  0  0  0  0  0  0  0  0
   -1.2253  -17.6279   26.7028 C   0  0  0  0  0  0  0  0  0  0  0  0
    3.2102  -16.8886   26.5286 N   0  0  0  0  0  0  0  0  0  0  0  0
    5.7091  -11.2596   19.8858 H   0  0  0  0  0  0  0  0  0  0  0  0
    5.4798  -12.6993   18.8567 H   0  0  0  0  0  0  0  0  0  0  0  0
    6.5029  -11.4756   16.4503 H   0  0  0  0  0  0  0  0  0  0  0  0
    8.4616  -11.3111   14.6726 H   0  0  0  0  0  0  0  0  0  0  0  0
   10.9600  -11.4428   14.3680 H   0  0  0  0  0  0  0  0  0  0  0  0
   12.4042  -11.5608   16.3696 H   0  0  0  0  0  0  0  0  0  0  0  0
   11.4124  -11.5659   18.6527 H   0  0  0  0  0  0  0  0  0  0  0  0
    4.4807  -13.7235   20.6541 H   0  0  0  0  0  0  0  0  0  0  0  0
    5.8308  -15.4613   23.6167 H   0  0  0  0  0  0  0  0  0  0  0  0
    3.7805  -19.4892   24.7268 H   0  0  0  0  0  0  0  0  0  0  0  0
    1.6868  -18.6234   24.4472 H   0  0  0  0  0  0  0  0  0  0  0  0
    0.7242  -17.1972   27.9348 H   0  0  0  0  0  0  0  0  0  0  0  0
   -1.9475  -19.1804   26.2644 H   0  0  0  0  0  0  0  0  0  0  0  0
   -1.0568  -19.8872   27.3024 H   0  0  0  0  0  0  0  0  0  0  0  0
   -2.0688  -17.2380   27.2514 H   0  0  0  0  0  0  0  0  0  0  0  0
   -1.7388  -17.5227   25.7374 H   0  0  0  0  0  0  0  0  0  0  0  0
  1  2  2  0
  2  3  1  0
  3  4  1  0
  4  5  2  0
  5  6  1  0
  6  7  1  0
  7  8  2  0
  8  9  1  0
  9 10  2  0
 10 11  1  0
 11 12  2  0
  2 13  1  0
 13 14  1  0
 14 15  1  0
 15 16  2  0
 15 17  1  0
 17 18  2  0
 18 19  1  0
 19 20  1  0
 20 21  1  0
 21 22  1  0
 22 23  1  0
 20 24  2  0
 12  4  1  0
 24 17  1  0
 11  6  1  0
 23 21  1  0
  3 25  1  0
  3 26  1  0
  5 27  1  0
  7 28  1  0
  8 29  1  0
  9 30  1  0
 10 31  1  0
 13 32  1  0
 14 33  1  0
 18 34  1  0
 19 35  1  0
 21 36  1  0
 22 37  1  0
 22 38  1  0
 23 39  1  0
 23 40  1  0
M  END
>  <Energy>  (29) 
778.6464959721668

>  <compound_id>  (29) 
46117

>  <target_id>  (29) 
1

>  <reference_id>  (29) 
35

>  <inspiration_ids>  (29) 
[35, 8]

>  <energy_score>  (29) 
615.8625119346881

>  <distance_score>  (29) 
13.531594674252487

>  <path>  (29) 
/opt/xchem-fragalysis-2/maxwin/BulkDock/SCRATCH/511023/C46117-P35/C46117-P35.minimised.mol

>  <scratch_subdir>  (29) 
/opt/xchem-fragalysis-2/maxwin/BulkDock/SCRATCH/511023/C46117-P35

>  <fragmenstein_runtime>  (29) 
34.89240527153015

>  <fragmenstein_outcome>  (29) 
too moved

>  <fragmenstein_mode>  (29) 
expansion

>  <fragmenstein_error>  (29) 


$$$$
C46117-P8
     RDKit          3D

 40 43  0  0  0  0  0  0  0  0999 V2000
    5.5470   -7.5464   11.8694 O   0  0  0  0  0  0  0  0  0  0  0  0
    6.2269   -7.7950   12.8422 C   0  0  0  0  0  0  0  0  0  0  0  0
    7.9143   -6.8631   12.7464 C   0  0  0  0  0  0  0  0  0  0  0  0
    8.7132   -5.4604   14.2120 C   0  0  0  0  0  0  0  0  0  0  0  0
   10.3651   -4.7726   14.4572 C   0  0  0  0  0  0  0  0  0  0  0  0
   10.5449   -3.3685   14.7246 N   0  0  0  0  0  0  0  0  0  0  0  0
   11.7387   -2.7047   15.0386 C   0  0  0  0  0  0  0  0  0  0  0  0
   11.7100   -1.4099   15.3940 C   0  0  0  0  0  0  0  0  0  0  0  0
   10.4293   -0.7249   15.4290 C   0  0  0  0  0  0  0  0  0  0  0  0
    9.2813   -1.3849   15.1790 C   0  0  0  0  0  0  0  0  0  0  0  0
    9.3234   -2.7764   14.8398 C   0  0  0  0  0  0  0  0  0  0  0  0
    8.3841   -3.6835   14.6842 N   0  0  0  0  0  0  0  0  0  0  0  0
    5.9526   -8.6920   14.0217 N   0  0  0  0  0  0  0  0  0  0  0  0
    4.8128   -9.6197   14.3038 N   0  0  0  0  0  0  0  0  0  0  0  0
    4.7002  -10.7840   15.2754 C   0  0  0  0  0  0  0  0  0  0  0  0
    5.5279  -11.2836   15.9897 O   0  0  0  0  0  0  0  0  0  0  0  0
    3.2686  -11.4981   15.4293 C   0  0  0  0  0  0  0  0  0  0  0  0
    2.0139  -11.0839   15.0184 C   0  0  0  0  0  0  0  0  0  0  0  0
    1.0923  -12.0269   15.4373 N   0  0  0  0  0  0  0  0  0  0  0  0
    1.7313  -13.0390   16.1043 C   0  0  0  0  0  0  0  0  0  0  0  0
    0.8849  -14.2315   16.7522 C   0  0  0  0  0  0  0  0  0  0  0  0
    1.4291  -15.5960   17.0604 C   0  0  0  0  0  0  0  0  0  0  0  0
    0.5211  -15.4142   15.8879 C   0  0  0  0  0  0  0  0  0  0  0  0
    3.0283  -12.7555   16.1580 N   0  0  0  0  0  0  0  0  0  0  0  0
    8.4127   -7.7322   12.2366 H   0  0  0  0  0  0  0  0  0  0  0  0
    7.8160   -6.6560   11.6583 H   0  0  0  0  0  0  0  0  0  0  0  0
   10.9865   -5.1640   15.2525 H   0  0  0  0  0  0  0  0  0  0  0  0
   12.6516   -3.2760   14.9995 H   0  0  0  0  0  0  0  0  0  0  0  0
   12.6128   -0.8617   15.6399 H   0  0  0  0  0  0  0  0  0  0  0  0
   10.4241    0.3418   15.6298 H   0  0  0  0  0  0  0  0  0  0  0  0
    8.3197   -0.8865   15.1540 H   0  0  0  0  0  0  0  0  0  0  0  0
    6.7706   -8.7298   14.6062 H   0  0  0  0  0  0  0  0  0  0  0  0
    3.8956   -9.4096   13.9248 H   0  0  0  0  0  0  0  0  0  0  0  0
    1.6841  -10.2078   14.4803 H   0  0  0  0  0  0  0  0  0  0  0  0
    0.0963  -11.9843   15.2810 H   0  0  0  0  0  0  0  0  0  0  0  0
    0.0573  -13.8706   17.3465 H   0  0  0  0  0  0  0  0  0  0  0  0
    2.4860  -15.7610   16.8850 H   0  0  0  0  0  0  0  0  0  0  0  0
    1.0068  -16.1591   17.8800 H   0  0  0  0  0  0  0  0  0  0  0  0
   -0.4846  -15.8102   15.9595 H   0  0  0  0  0  0  0  0  0  0  0  0
    0.9649  -15.4937   14.9017 H   0  0  0  0  0  0  0  0  0  0  0  0
  1  2  2  0
  2  3  1  0
  3  4  1  0
  4  5  2  0
  5  6  1  0
  6  7  1  0
  7  8  2  0
  8  9  1  0
  9 10  2  0
 10 11  1  0
 11 12  2  0
  2 13  1  0
 13 14  1  0
 14 15  1  0
 15 16  2  0
 15 17  1  0
 17 18  2  0
 18 19  1  0
 19 20  1  0
 20 21  1  0
 21 22  1  0
 22 23  1  0
 20 24  2  0
 12  4  1  0
 24 17  1  0
 11  6  1  0
 23 21  1  0
  3 25  1  0
  3 26  1  0
  5 27  1  0
  7 28  1  0
  8 29  1  0
  9 30  1  0
 10 31  1  0
 13 32  1  0
 14 33  1  0
 18 34  1  0
 19 35  1  0
 21 36  1  0
 22 37  1  0
 22 38  1  0
 23 39  1  0
 23 40  1  0
M  END
>  <Energy>  (30) 
580.10975913149389

>  <compound_id>  (30) 
46117

>  <target_id>  (30) 
1

>  <reference_id>  (30) 
8

>  <inspiration_ids>  (30) 
[35, 8]

>  <energy_score>  (30) 
417.32577509403325

>  <distance_score>  (30) 
16.97535554875074

>  <path>  (30) 
/opt/xchem-fragalysis-2/maxwin/BulkDock/SCRATCH/511023/C46117-P8/C46117-P8.minimised.mol

>  <scratch_subdir>  (30) 
/opt/xchem-fragalysis-2/maxwin/BulkDock/SCRATCH/511023/C46117-P8

>  <fragmenstein_runtime>  (30) 
25.99421977996826

>  <fragmenstein_outcome>  (30) 
too moved

>  <fragmenstein_mode>  (30) 
expansion

>  <fragmenstein_error>  (30) 


$$$$
C46118-P35
     RDKit          3D

 33 35  0  0  0  0  0  0  0  0999 V2000
    4.9228   -8.5346   21.9826 C   0  0  0  0  0  0  0  0  0  0  0  0
    3.7165   -9.0752   22.5957 N   0  0  0  0  0  0  0  0  0  0  0  0
    2.8021   -8.3626   23.3196 C   0  0  0  0  0  0  0  0  0  0  0  0
    1.8110   -9.1249   23.7593 N   0  0  0  0  0  0  0  0  0  0  0  0
    2.0658  -10.4179   23.3068 C   0  0  0  0  0  0  0  0  0  0  0  0
    1.1743  -11.6618   23.5072 C   0  0  0  0  0  0  0  0  0  0  0  0
    1.5081  -12.6258   22.8727 O   0  0  0  0  0  0  0  0  0  0  0  0
    0.0113  -11.4489   24.3844 N   0  0  0  0  0  0  0  0  0  0  0  0
   -1.1137  -12.2884   24.6673 N   0  0  0  0  0  0  0  0  0  0  0  0
   -1.8342  -12.5617   25.9536 C   0  0  0  0  0  0  0  0  0  0  0  0
   -1.6918  -12.0809   27.0465 O   0  0  0  0  0  0  0  0  0  0  0  0
   -2.9887  -13.6259   25.6946 C   0  0  0  0  0  0  0  0  0  0  0  0
   -3.7798  -14.3021   26.8547 C   0  0  0  0  0  0  0  0  0  0  0  0
   -3.5329  -14.4481   28.2207 C   0  0  0  0  0  0  0  0  0  0  0  0
   -4.5990  -15.1451   28.7401 N   0  0  0  0  0  0  0  0  0  0  0  0
   -5.0167  -15.6084   29.9752 C   0  0  0  0  0  0  0  0  0  0  0  0
   -6.1745  -16.2919   29.8936 C   0  0  0  0  0  0  0  0  0  0  0  0
   -6.8173  -16.3466   28.2409 S   0  0  0  0  0  0  0  0  0  0  0  0
   -5.4288  -15.4287   27.7031 C   0  0  0  0  0  0  0  0  0  0  0  0
   -5.0047  -14.9508   26.5578 N   0  0  0  0  0  0  0  0  0  0  0  0
    3.2626  -10.3721   22.5710 C   0  0  0  0  0  0  0  0  0  0  0  0
    5.4617   -9.3462   21.4881 H   0  0  0  0  0  0  0  0  0  0  0  0
    4.6208   -7.7777   21.2550 H   0  0  0  0  0  0  0  0  0  0  0  0
    5.5360   -8.0960   22.7733 H   0  0  0  0  0  0  0  0  0  0  0  0
    2.8989   -7.2997   23.5011 H   0  0  0  0  0  0  0  0  0  0  0  0
    0.0007  -10.4760   24.6953 H   0  0  0  0  0  0  0  0  0  0  0  0
   -1.4386  -12.9408   23.9551 H   0  0  0  0  0  0  0  0  0  0  0  0
   -2.5720  -14.4370   25.0873 H   0  0  0  0  0  0  0  0  0  0  0  0
   -3.7323  -13.1078   25.0745 H   0  0  0  0  0  0  0  0  0  0  0  0
   -2.7196  -14.1046   28.8432 H   0  0  0  0  0  0  0  0  0  0  0  0
   -4.4171  -15.4416   30.8560 H   0  0  0  0  0  0  0  0  0  0  0  0
   -6.6740  -16.7872   30.7167 H   0  0  0  0  0  0  0  0  0  0  0  0
    3.7902  -11.1575   22.0465 H   0  0  0  0  0  0  0  0  0  0  0  0
  1  2  1  0
  2  3  1  0
  3  4  2  0
  4  5  1  0
  5  6  1  0
  6  7  2  0
  6  8  1  0
  8  9  1  0
  9 10  1  0
 10 11  2  0
 10 12  1  0
 12 13  1  0
 13 14  2  0
 14 15  1  0
 15 16  1  0
 16 17  2  0
 17 18  1  0
 18 19  1  0
 19 20  2  0
  5 21  2  0
 21  2  1  0
 20 13  1  0
 19 15  1  0
  1 22  1  0
  1 23  1  0
  1 24  1  0
  3 25  1  0
  8 26  1  0
  9 27  1  0
 12 28  1  0
 12 29  1  0
 14 30  1  0
 16 31  1  0
 17 32  1  0
 21 33  1  0
M  END
>  <Energy>  (31) 
138.09068840833049

>  <compound_id>  (31) 
46118

>  <target_id>  (31) 
1

>  <reference_id>  (31) 
35

>  <inspiration_ids>  (31) 
[35, 8]

>  <energy_score>  (31) 
-21.90115546952802

>  <distance_score>  (31) 
14.845896826076014

>  <path>  (31) 
/opt/xchem-fragalysis-2/maxwin/BulkDock/SCRATCH/511023/C46118-P35/C46118-P35.minimised.mol

>  <scratch_subdir>  (31) 
/opt/xchem-fragalysis-2/maxwin/BulkDock/SCRATCH/511023/C46118-P35

>  <fragmenstein_runtime>  (31) 
21.948538541793823

>  <fragmenstein_outcome>  (31) 
too moved

>  <fragmenstein_mode>  (31) 
expansion

>  <fragmenstein_error>  (31) 


$$$$
C46118-P8
     RDKit          3D

 33 35  0  0  0  0  0  0  0  0999 V2000
    7.8023   -9.7920   23.4399 C   0  0  0  0  0  0  0  0  0  0  0  0
    6.9258  -10.8117   23.9973 N   0  0  0  0  0  0  0  0  0  0  0  0
    6.5234  -11.9562   23.3689 C   0  0  0  0  0  0  0  0  0  0  0  0
    5.7239  -12.6921   24.1297 N   0  0  0  0  0  0  0  0  0  0  0  0
    5.5816  -12.0107   25.3324 C   0  0  0  0  0  0  0  0  0  0  0  0
    4.6945  -12.3823   26.5318 C   0  0  0  0  0  0  0  0  0  0  0  0
    4.5684  -11.4826   27.3166 O   0  0  0  0  0  0  0  0  0  0  0  0
    4.0652  -13.7201   26.4944 N   0  0  0  0  0  0  0  0  0  0  0  0
    3.0384  -14.3076   27.3365 N   0  0  0  0  0  0  0  0  0  0  0  0
    2.8597  -15.9229   27.9413 C   0  0  0  0  0  0  0  0  0  0  0  0
    3.6276  -16.8332   27.8229 O   0  0  0  0  0  0  0  0  0  0  0  0
    1.2918  -16.5148   28.8218 C   0  0  0  0  0  0  0  0  0  0  0  0
    1.1320  -17.0563   30.5543 C   0  0  0  0  0  0  0  0  0  0  0  0
    0.7688  -18.3409   31.0853 C   0  0  0  0  0  0  0  0  0  0  0  0
    0.1493  -18.1493   32.2836 N   0  0  0  0  0  0  0  0  0  0  0  0
   -0.6259  -18.9162   33.1319 C   0  0  0  0  0  0  0  0  0  0  0  0
   -1.2317  -18.1590   34.0606 C   0  0  0  0  0  0  0  0  0  0  0  0
   -0.8218  -16.4362   33.8983 S   0  0  0  0  0  0  0  0  0  0  0  0
    0.1830  -16.8155   32.5177 C   0  0  0  0  0  0  0  0  0  0  0  0
    0.7132  -16.1214   31.5325 N   0  0  0  0  0  0  0  0  0  0  0  0
    6.3358  -10.8275   25.2339 C   0  0  0  0  0  0  0  0  0  0  0  0
    8.7606  -10.2616   23.2058 H   0  0  0  0  0  0  0  0  0  0  0  0
    7.9375   -8.9979   24.1781 H   0  0  0  0  0  0  0  0  0  0  0  0
    7.3299   -9.3963   22.5377 H   0  0  0  0  0  0  0  0  0  0  0  0
    6.8361  -12.2125   22.3644 H   0  0  0  0  0  0  0  0  0  0  0  0
    4.3408  -14.1954   25.6349 H   0  0  0  0  0  0  0  0  0  0  0  0
    2.2078  -13.7889   27.5129 H   0  0  0  0  0  0  0  0  0  0  0  0
    0.9353  -17.3170   28.1693 H   0  0  0  0  0  0  0  0  0  0  0  0
    0.4249  -15.8842   28.8406 H   0  0  0  0  0  0  0  0  0  0  0  0
    0.6847  -19.3237   30.6545 H   0  0  0  0  0  0  0  0  0  0  0  0
   -0.7306  -19.9780   32.9820 H   0  0  0  0  0  0  0  0  0  0  0  0
   -1.9128  -18.5100   34.8243 H   0  0  0  0  0  0  0  0  0  0  0  0
    6.4644  -10.0246   25.9476 H   0  0  0  0  0  0  0  0  0  0  0  0
  1  2  1  0
  2  3  1  0
  3  4  2  0
  4  5  1  0
  5  6  1  0
  6  7  2  0
  6  8  1  0
  8  9  1  0
  9 10  1  0
 10 11  2  0
 10 12  1  0
 12 13  1  0
 13 14  2  0
 14 15  1  0
 15 16  1  0
 16 17  2  0
 17 18  1  0
 18 19  1  0
 19 20  2  0
  5 21  2  0
 21  2  1  0
 20 13  1  0
 19 15  1  0
  1 22  1  0
  1 23  1  0
  1 24  1  0
  3 25  1  0
  8 26  1  0
  9 27  1  0
 12 28  1  0
 12 29  1  0
 14 30  1  0
 16 31  1  0
 17 32  1  0
 21 33  1  0
M  END
>  <Energy>  (32) 
252.84149161134667

>  <compound_id>  (32) 
46118

>  <target_id>  (32) 
1

>  <reference_id>  (32) 
8

>  <inspiration_ids>  (32) 
[35, 8]

>  <energy_score>  (32) 
92.84964773348395

>  <distance_score>  (32) 
15.018866810539594

>  <path>  (32) 
/opt/xchem-fragalysis-2/maxwin/BulkDock/SCRATCH/511023/C46118-P8/C46118-P8.minimised.mol

>  <scratch_subdir>  (32) 
/opt/xchem-fragalysis-2/maxwin/BulkDock/SCRATCH/511023/C46118-P8

>  <fragmenstein_runtime>  (32) 
20.090887546539307

>  <fragmenstein_outcome>  (32) 
too moved

>  <fragmenstein_mode>  (32) 
expansion

>  <fragmenstein_error>  (32) 


$$$$
C46120-P35
     RDKit          3D

 37 39  0  0  0  0  0  0  0  0999 V2000
    1.2498  -10.2953   33.0628 O   0  0  0  0  0  0  0  0  0  0  0  0
    0.6146  -10.6563   32.1169 C   0  0  0  0  0  0  0  0  0  0  0  0
    0.6207  -10.1907   30.7420 N   0  0  0  0  0  0  0  0  0  0  0  0
    1.4900   -9.1815   30.0475 C   0  0  0  0  0  0  0  0  0  0  0  0
    2.8703   -9.7115   29.5248 C   0  0  0  0  0  0  0  0  0  0  0  0
    3.8613   -9.8899   30.6885 C   0  0  0  0  0  0  0  0  0  0  0  0
    5.0164  -10.5915   30.2121 O   0  0  0  0  0  0  0  0  0  0  0  0
    3.5869   -8.9998   28.4017 N   0  0  0  0  0  0  0  0  0  0  0  0
    3.7625   -7.5908   28.1292 C   0  0  0  0  0  0  0  0  0  0  0  0
    3.3153   -6.6303   28.6824 O   0  0  0  0  0  0  0  0  0  0  0  0
    4.7309   -7.3227   27.0020 C   0  0  0  0  0  0  0  0  0  0  0  0
    5.5838   -8.1384   26.2355 C   0  0  0  0  0  0  0  0  0  0  0  0
    6.3647   -7.4437   25.3145 N   0  0  0  0  0  0  0  0  0  0  0  0
    6.0050   -6.2098   25.5089 C   0  0  0  0  0  0  0  0  0  0  0  0
    6.4824   -4.6836   24.8161 S   0  0  0  0  0  0  0  0  0  0  0  0
    5.3228   -3.8924   25.9003 C   0  0  0  0  0  0  0  0  0  0  0  0
    4.6647   -4.7533   26.6982 C   0  0  0  0  0  0  0  0  0  0  0  0
    5.0486   -6.0625   26.4810 N   0  0  0  0  0  0  0  0  0  0  0  0
   -0.3568  -11.7669   32.3558 C   0  0  0  0  0  0  0  0  0  0  0  0
   -0.1820  -12.9604   33.0595 C   0  0  0  0  0  0  0  0  0  0  0  0
   -1.3015  -13.7674   33.0396 N   0  0  0  0  0  0  0  0  0  0  0  0
   -2.1976  -13.0692   32.3881 C   0  0  0  0  0  0  0  0  0  0  0  0
   -1.6949  -11.8524   31.9953 N   0  0  0  0  0  0  0  0  0  0  0  0
    0.0084  -10.7855   30.1872 H   0  0  0  0  0  0  0  0  0  0  0  0
    0.8989   -8.8155   29.2017 H   0  0  0  0  0  0  0  0  0  0  0  0
    1.6469   -8.3518   30.7448 H   0  0  0  0  0  0  0  0  0  0  0  0
    2.6809  -10.7026   29.1011 H   0  0  0  0  0  0  0  0  0  0  0  0
    4.1861   -8.9214   31.0824 H   0  0  0  0  0  0  0  0  0  0  0  0
    3.4269  -10.4828   31.4968 H   0  0  0  0  0  0  0  0  0  0  0  0
    5.6023  -10.7099   30.9817 H   0  0  0  0  0  0  0  0  0  0  0  0
    4.1814   -9.5319   27.7826 H   0  0  0  0  0  0  0  0  0  0  0  0
    5.7007   -9.2131   26.3093 H   0  0  0  0  0  0  0  0  0  0  0  0
    5.1891   -2.8185   25.8931 H   0  0  0  0  0  0  0  0  0  0  0  0
    3.9196   -4.5099   27.4406 H   0  0  0  0  0  0  0  0  0  0  0  0
    0.7231  -13.2823   33.5603 H   0  0  0  0  0  0  0  0  0  0  0  0
   -3.2119  -13.3745   32.1695 H   0  0  0  0  0  0  0  0  0  0  0  0
   -2.2028  -11.1538   31.4737 H   0  0  0  0  0  0  0  0  0  0  0  0
  1  2  2  0
  2  3  1  0
  3  4  1  0
  4  5  1  0
  5  6  1  0
  6  7  1  0
  5  8  1  0
  8  9  1  0
  9 10  2  0
  9 11  1  0
 11 12  2  0
 12 13  1  0
 13 14  2  0
 14 15  1  0
 15 16  1  0
 16 17  2  0
 17 18  1  0
  2 19  1  0
 19 20  2  0
 20 21  1  0
 21 22  2  0
 22 23  1  0
 18 11  1  0
 23 19  1  0
 18 14  1  0
  3 24  1  0
  4 25  1  0
  4 26  1  0
  5 27  1  0
  6 28  1  0
  6 29  1  0
  7 30  1  0
  8 31  1  0
 12 32  1  0
 16 33  1  0
 17 34  1  0
 20 35  1  0
 22 36  1  0
 23 37  1  0
M  END
>  <Energy>  (33) 
-9.5260099757284635

>  <compound_id>  (33) 
46120

>  <target_id>  (33) 
1

>  <reference_id>  (33) 
35

>  <inspiration_ids>  (33) 
[35, 8]

>  <energy_score>  (33) 
-13.91623345687276

>  <distance_score>  (33) 
15.980347384547764

>  <path>  (33) 
/opt/xchem-fragalysis-2/maxwin/BulkDock/SCRATCH/511023/C46120-P35/C46120-P35.minimised.mol

>  <scratch_subdir>  (33) 
/opt/xchem-fragalysis-2/maxwin/BulkDock/SCRATCH/511023/C46120-P35

>  <fragmenstein_runtime>  (33) 
42.79727482795715

>  <fragmenstein_outcome>  (33) 
too moved

>  <fragmenstein_mode>  (33) 
expansion

>  <fragmenstein_error>  (33) 


$$$$
C46120-P8
     RDKit          3D

 37 39  0  0  0  0  0  0  0  0999 V2000
    3.1357  -17.1584   27.2363 O   0  0  0  0  0  0  0  0  0  0  0  0
    2.9678  -16.1414   27.8263 C   0  0  0  0  0  0  0  0  0  0  0  0
    3.6312  -14.6319   27.3414 N   0  0  0  0  0  0  0  0  0  0  0  0
    4.5589  -14.1684   25.8691 C   0  0  0  0  0  0  0  0  0  0  0  0
    5.9948  -13.2079   25.7232 C   0  0  0  0  0  0  0  0  0  0  0  0
    6.3215  -12.2270   26.8831 C   0  0  0  0  0  0  0  0  0  0  0  0
    7.7329  -12.1834   27.1111 O   0  0  0  0  0  0  0  0  0  0  0  0
    6.3590  -12.5386   24.4275 N   0  0  0  0  0  0  0  0  0  0  0  0
    6.0947  -11.2059   23.9441 C   0  0  0  0  0  0  0  0  0  0  0  0
    5.4485  -10.3199   24.4183 O   0  0  0  0  0  0  0  0  0  0  0  0
    6.8275  -10.8661   22.7143 C   0  0  0  0  0  0  0  0  0  0  0  0
    6.4291  -10.0163   21.6714 C   0  0  0  0  0  0  0  0  0  0  0  0
    7.4577   -9.6962   20.8018 N   0  0  0  0  0  0  0  0  0  0  0  0
    8.4744  -10.3174   21.3182 C   0  0  0  0  0  0  0  0  0  0  0  0
   10.1724  -10.3564   20.9670 S   0  0  0  0  0  0  0  0  0  0  0  0
   10.4055  -11.3687   22.4007 C   0  0  0  0  0  0  0  0  0  0  0  0
    9.2622  -11.6110   23.0665 C   0  0  0  0  0  0  0  0  0  0  0  0
    8.1755  -11.0180   22.4540 N   0  0  0  0  0  0  0  0  0  0  0  0
    1.9258  -16.3815   29.0228 C   0  0  0  0  0  0  0  0  0  0  0  0
    0.9222  -17.2327   28.7819 C   0  0  0  0  0  0  0  0  0  0  0  0
    0.5966  -18.1021   30.1362 N   0  0  0  0  0  0  0  0  0  0  0  0
    1.0764  -17.3793   31.0828 C   0  0  0  0  0  0  0  0  0  0  0  0
    1.5352  -16.2739   30.4568 N   0  0  0  0  0  0  0  0  0  0  0  0
    3.2830  -13.9162   27.9461 H   0  0  0  0  0  0  0  0  0  0  0  0
    4.7900  -15.0772   25.3366 H   0  0  0  0  0  0  0  0  0  0  0  0
    3.8345  -13.8335   25.1203 H   0  0  0  0  0  0  0  0  0  0  0  0
    6.8039  -13.9542   25.7190 H   0  0  0  0  0  0  0  0  0  0  0  0
    5.8339  -12.5132   27.8123 H   0  0  0  0  0  0  0  0  0  0  0  0
    6.0225  -11.1955   26.6823 H   0  0  0  0  0  0  0  0  0  0  0  0
    8.1092  -11.6384   26.3994 H   0  0  0  0  0  0  0  0  0  0  0  0
    6.8810  -13.0481   23.7237 H   0  0  0  0  0  0  0  0  0  0  0  0
    5.4434   -9.5841   21.5372 H   0  0  0  0  0  0  0  0  0  0  0  0
   11.3880  -11.7247   22.6846 H   0  0  0  0  0  0  0  0  0  0  0  0
    9.1594  -12.1814   23.9763 H   0  0  0  0  0  0  0  0  0  0  0  0
    0.5313  -17.6227   27.8502 H   0  0  0  0  0  0  0  0  0  0  0  0
    1.0573  -17.5491   32.1480 H   0  0  0  0  0  0  0  0  0  0  0  0
    1.8999  -15.5651   31.0350 H   0  0  0  0  0  0  0  0  0  0  0  0
  1  2  2  0
  2  3  1  0
  3  4  1  0
  4  5  1  0
  5  6  1  0
  6  7  1  0
  5  8  1  0
  8  9  1  0
  9 10  2  0
  9 11  1  0
 11 12  2  0
 12 13  1  0
 13 14  2  0
 14 15  1  0
 15 16  1  0
 16 17  2  0
 17 18  1  0
  2 19  1  0
 19 20  2  0
 20 21  1  0
 21 22  2  0
 22 23  1  0
 18 11  1  0
 23 19  1  0
 18 14  1  0
  3 24  1  0
  4 25  1  0
  4 26  1  0
  5 27  1  0
  6 28  1  0
  6 29  1  0
  7 30  1  0
  8 31  1  0
 12 32  1  0
 16 33  1  0
 17 34  1  0
 20 35  1  0
 22 36  1  0
 23 37  1  0
M  END
>  <Energy>  (34) 
169.80436995021023

>  <compound_id>  (34) 
46120

>  <target_id>  (34) 
1

>  <reference_id>  (34) 
8

>  <inspiration_ids>  (34) 
[35, 8]

>  <energy_score>  (34) 
165.4141464690598

>  <distance_score>  (34) 
14.393040829969644

>  <path>  (34) 
/opt/xchem-fragalysis-2/maxwin/BulkDock/SCRATCH/511023/C46120-P8/C46120-P8.minimised.mol

>  <scratch_subdir>  (34) 
/opt/xchem-fragalysis-2/maxwin/BulkDock/SCRATCH/511023/C46120-P8

>  <fragmenstein_runtime>  (34) 
20.701477527618408

>  <fragmenstein_outcome>  (34) 
too moved

>  <fragmenstein_mode>  (34) 
expansion

>  <fragmenstein_error>  (34) 


$$$$
C46122-P35
     RDKit          3D

 37 39  0  0  0  0  0  0  0  0999 V2000
    5.3088   -9.4302   25.4947 C   0  0  0  0  0  0  0  0  0  0  0  0
    5.4060  -10.6277   24.6180 C   0  0  0  0  0  0  0  0  0  0  0  0
    6.1379  -10.6073   23.5150 N   0  0  0  0  0  0  0  0  0  0  0  0
    5.9479  -11.8122   22.9151 C   0  0  0  0  0  0  0  0  0  0  0  0
    5.1102  -12.5993   23.6703 C   0  0  0  0  0  0  0  0  0  0  0  0
    4.7629  -11.8679   24.7885 N   0  0  0  0  0  0  0  0  0  0  0  0
    3.7176  -12.3116   25.7663 C   0  0  0  0  0  0  0  0  0  0  0  0
    3.8848  -13.7770   26.5542 C   0  0  0  0  0  0  0  0  0  0  0  0
    3.0221  -14.3302   27.7895 N   0  0  0  0  0  0  0  0  0  0  0  0
    2.2864  -16.0249   28.1128 C   0  0  0  0  0  0  0  0  0  0  0  0
    2.3757  -16.9545   27.3646 O   0  0  0  0  0  0  0  0  0  0  0  0
    1.5472  -16.0447   29.7762 N   0  0  0  0  0  0  0  0  0  0  0  0
    0.9900  -17.2134   30.6319 C   0  0  0  0  0  0  0  0  0  0  0  0
    0.6938  -18.6065   30.7589 C   0  0  0  0  0  0  0  0  0  0  0  0
    0.1233  -19.0767   31.9140 N   0  0  0  0  0  0  0  0  0  0  0  0
   -0.2270  -17.9955   32.5264 C   0  0  0  0  0  0  0  0  0  0  0  0
   -1.1753  -17.8650   33.5805 C   0  0  0  0  0  0  0  0  0  0  0  0
   -1.5491  -16.6428   33.9842 C   0  0  0  0  0  0  0  0  0  0  0  0
   -0.9332  -15.4620   33.4104 C   0  0  0  0  0  0  0  0  0  0  0  0
   -0.0191  -15.5824   32.4265 C   0  0  0  0  0  0  0  0  0  0  0  0
    0.3274  -16.8477   31.9201 N   0  0  0  0  0  0  0  0  0  0  0  0
    5.9634   -8.6287   25.1390 H   0  0  0  0  0  0  0  0  0  0  0  0
    4.2817   -9.0535   25.5093 H   0  0  0  0  0  0  0  0  0  0  0  0
    5.6032   -9.6834   26.5177 H   0  0  0  0  0  0  0  0  0  0  0  0
    6.4043  -12.0546   21.9642 H   0  0  0  0  0  0  0  0  0  0  0  0
    4.7075  -13.5868   23.4885 H   0  0  0  0  0  0  0  0  0  0  0  0
    3.6421  -11.5209   26.5210 H   0  0  0  0  0  0  0  0  0  0  0  0
    2.7809  -12.3321   25.2013 H   0  0  0  0  0  0  0  0  0  0  0  0
    4.2152  -14.5513   25.8681 H   0  0  0  0  0  0  0  0  0  0  0  0
    4.6998  -13.3930   27.1666 H   0  0  0  0  0  0  0  0  0  0  0  0
    2.7484  -13.6974   28.5146 H   0  0  0  0  0  0  0  0  0  0  0  0
    1.6792  -15.1670   30.2102 H   0  0  0  0  0  0  0  0  0  0  0  0
    0.6981  -19.3918   30.0354 H   0  0  0  0  0  0  0  0  0  0  0  0
   -1.6149  -18.7647   33.9960 H   0  0  0  0  0  0  0  0  0  0  0  0
   -2.2959  -16.5148   34.7611 H   0  0  0  0  0  0  0  0  0  0  0  0
   -1.2281  -14.4906   33.7939 H   0  0  0  0  0  0  0  0  0  0  0  0
    0.4377  -14.7196   31.9761 H   0  0  0  0  0  0  0  0  0  0  0  0
  1  2  1  0
  2  3  2  0
  3  4  1  0
  4  5  2  0
  5  6  1  0
  6  7  1  0
  7  8  1  0
  8  9  1  0
  9 10  1  0
 10 11  2  0
 10 12  1  0
 12 13  1  0
 13 14  2  0
 14 15  1  0
 15 16  2  0
 16 17  1  0
 17 18  2  0
 18 19  1  0
 19 20  2  0
 20 21  1  0
  6  2  1  0
 21 13  1  0
 21 16  1  0
  1 22  1  0
  1 23  1  0
  1 24  1  0
  4 25  1  0
  5 26  1  0
  7 27  1  0
  7 28  1  0
  8 29  1  0
  8 30  1  0
  9 31  1  0
 12 32  1  0
 14 33  1  0
 17 34  1  0
 18 35  1  0
 19 36  1  0
 20 37  1  0
M  END
>  <Energy>  (35) 
184.04885577881495

>  <compound_id>  (35) 
46122

>  <target_id>  (35) 
1

>  <reference_id>  (35) 
35

>  <inspiration_ids>  (35) 
[35, 8]

>  <energy_score>  (35) 
163.02100768005127

>  <distance_score>  (35) 
15.690914718019343

>  <path>  (35) 
/opt/xchem-fragalysis-2/maxwin/BulkDock/SCRATCH/511023/C46122-P35/C46122-P35.minimised.mol

>  <scratch_subdir>  (35) 
/opt/xchem-fragalysis-2/maxwin/BulkDock/SCRATCH/511023/C46122-P35

>  <fragmenstein_runtime>  (35) 
29.809553384780884

>  <fragmenstein_outcome>  (35) 
too moved

>  <fragmenstein_mode>  (35) 
expansion

>  <fragmenstein_error>  (35) 


$$$$
C46122-P8
     RDKit          3D

 37 39  0  0  0  0  0  0  0  0999 V2000
    4.0556   -4.7476   22.2635 C   0  0  0  0  0  0  0  0  0  0  0  0
    4.6812   -6.0836   22.4471 C   0  0  0  0  0  0  0  0  0  0  0  0
    5.9083   -6.3431   22.0290 N   0  0  0  0  0  0  0  0  0  0  0  0
    6.1419   -7.6449   22.3474 C   0  0  0  0  0  0  0  0  0  0  0  0
    5.0427   -8.2008   22.9613 C   0  0  0  0  0  0  0  0  0  0  0  0
    4.0922   -7.2101   23.0451 N   0  0  0  0  0  0  0  0  0  0  0  0
    2.6905   -7.3957   23.4990 C   0  0  0  0  0  0  0  0  0  0  0  0
    2.2930   -8.5099   24.6267 C   0  0  0  0  0  0  0  0  0  0  0  0
    0.8302   -8.9467   24.8894 N   0  0  0  0  0  0  0  0  0  0  0  0
    0.2108   -9.8564   26.0450 C   0  0  0  0  0  0  0  0  0  0  0  0
    0.7429  -10.3197   26.9895 O   0  0  0  0  0  0  0  0  0  0  0  0
   -1.2262  -10.0404   25.5302 N   0  0  0  0  0  0  0  0  0  0  0  0
   -2.2915  -10.8985   25.9958 C   0  0  0  0  0  0  0  0  0  0  0  0
   -3.4924  -11.0690   25.2932 C   0  0  0  0  0  0  0  0  0  0  0  0
   -4.2869  -12.0916   25.7449 N   0  0  0  0  0  0  0  0  0  0  0  0
   -3.6712  -12.5494   26.8051 C   0  0  0  0  0  0  0  0  0  0  0  0
   -4.0834  -13.5852   27.7012 C   0  0  0  0  0  0  0  0  0  0  0  0
   -3.4368  -13.7490   28.8653 C   0  0  0  0  0  0  0  0  0  0  0  0
   -2.3087  -12.8983   29.1993 C   0  0  0  0  0  0  0  0  0  0  0  0
   -1.8489  -11.9883   28.3114 C   0  0  0  0  0  0  0  0  0  0  0  0
   -2.4945  -11.8057   27.0856 N   0  0  0  0  0  0  0  0  0  0  0  0
    3.8309   -4.2963   23.2346 H   0  0  0  0  0  0  0  0  0  0  0  0
    3.1252   -4.8363   21.6945 H   0  0  0  0  0  0  0  0  0  0  0  0
    4.7252   -4.0739   21.7199 H   0  0  0  0  0  0  0  0  0  0  0  0
    7.0832   -8.1259   22.1151 H   0  0  0  0  0  0  0  0  0  0  0  0
    4.8704   -9.2051   23.3211 H   0  0  0  0  0  0  0  0  0  0  0  0
    2.1292   -7.6297   22.5864 H   0  0  0  0  0  0  0  0  0  0  0  0
    2.3499   -6.4199   23.8627 H   0  0  0  0  0  0  0  0  0  0  0  0
    2.8025   -9.4473   24.3797 H   0  0  0  0  0  0  0  0  0  0  0  0
    2.6888   -8.1871   25.5960 H   0  0  0  0  0  0  0  0  0  0  0  0
    0.0959   -8.6453   24.2700 H   0  0  0  0  0  0  0  0  0  0  0  0
   -1.3791   -9.4358   24.7411 H   0  0  0  0  0  0  0  0  0  0  0  0
   -3.7825  -10.5315   24.3989 H   0  0  0  0  0  0  0  0  0  0  0  0
   -4.9338  -14.1989   27.4301 H   0  0  0  0  0  0  0  0  0  0  0  0
   -3.7376  -14.5140   29.5740 H   0  0  0  0  0  0  0  0  0  0  0  0
   -1.8323  -13.0329   30.1657 H   0  0  0  0  0  0  0  0  0  0  0  0
   -1.0046  -11.3439   28.5191 H   0  0  0  0  0  0  0  0  0  0  0  0
  1  2  1  0
  2  3  2  0
  3  4  1  0
  4  5  2  0
  5  6  1  0
  6  7  1  0
  7  8  1  0
  8  9  1  0
  9 10  1  0
 10 11  2  0
 10 12  1  0
 12 13  1  0
 13 14  2  0
 14 15  1  0
 15 16  2  0
 16 17  1  0
 17 18  2  0
 18 19  1  0
 19 20  2  0
 20 21  1  0
  6  2  1  0
 21 13  1  0
 21 16  1  0
  1 22  1  0
  1 23  1  0
  1 24  1  0
  4 25  1  0
  5 26  1  0
  7 27  1  0
  7 28  1  0
  8 29  1  0
  8 30  1  0
  9 31  1  0
 12 32  1  0
 14 33  1  0
 17 34  1  0
 18 35  1  0
 19 36  1  0
 20 37  1  0
M  END
>  <Energy>  (36) 
48.102605971621067

>  <compound_id>  (36) 
46122

>  <target_id>  (36) 
1

>  <reference_id>  (36) 
8

>  <inspiration_ids>  (36) 
[35, 8]

>  <energy_score>  (36) 
27.07475787285543

>  <distance_score>  (36) 
15.400776665849618

>  <path>  (36) 
/opt/xchem-fragalysis-2/maxwin/BulkDock/SCRATCH/511023/C46122-P8/C46122-P8.minimised.mol

>  <scratch_subdir>  (36) 
/opt/xchem-fragalysis-2/maxwin/BulkDock/SCRATCH/511023/C46122-P8

>  <fragmenstein_runtime>  (36) 
21.982020616531372

>  <fragmenstein_outcome>  (36) 
too moved

>  <fragmenstein_mode>  (36) 
expansion

>  <fragmenstein_error>  (36) 


$$$$
C46124-P35
     RDKit          3D

 32 34  0  0  0  0  0  0  0  0999 V2000
   -1.8402  -21.6346   20.8423 C   0  0  0  0  0  0  0  0  0  0  0  0
   -0.9646  -20.5565   20.4114 N   0  0  0  0  0  0  0  0  0  0  0  0
   -0.3794  -19.6344   21.2265 C   0  0  0  0  0  0  0  0  0  0  0  0
    0.2719  -18.7051   20.5478 N   0  0  0  0  0  0  0  0  0  0  0  0
    0.2603  -19.1169   19.2352 C   0  0  0  0  0  0  0  0  0  0  0  0
    1.2580  -18.4215   17.8870 S   0  0  0  0  0  0  0  0  0  0  0  0
    2.3789  -19.3374   17.8359 O   0  0  0  0  0  0  0  0  0  0  0  0
    0.2800  -18.4197   16.8101 O   0  0  0  0  0  0  0  0  0  0  0  0
    1.8718  -16.8422   17.8592 N   0  0  0  0  0  0  0  0  0  0  0  0
    3.2889  -16.3373   17.7397 C   0  0  0  0  0  0  0  0  0  0  0  0
    4.3281  -16.9363   17.7178 O   0  0  0  0  0  0  0  0  0  0  0  0
    3.4044  -14.8497   17.5101 C   0  0  0  0  0  0  0  0  0  0  0  0
    2.4801  -13.9549   16.9761 C   0  0  0  0  0  0  0  0  0  0  0  0
    2.9737  -12.6867   16.7929 N   0  0  0  0  0  0  0  0  0  0  0  0
    4.2318  -12.7493   17.1506 C   0  0  0  0  0  0  0  0  0  0  0  0
    5.2372  -11.7283   17.1308 C   0  0  0  0  0  0  0  0  0  0  0  0
    6.4918  -12.0074   17.5273 C   0  0  0  0  0  0  0  0  0  0  0  0
    6.8404  -13.3402   17.9839 C   0  0  0  0  0  0  0  0  0  0  0  0
    5.8985  -14.3062   18.0053 C   0  0  0  0  0  0  0  0  0  0  0  0
    4.5812  -14.0341   17.5935 N   0  0  0  0  0  0  0  0  0  0  0  0
   -0.5512  -20.2582   19.1364 C   0  0  0  0  0  0  0  0  0  0  0  0
   -1.3833  -22.5794   20.5385 H   0  0  0  0  0  0  0  0  0  0  0  0
   -2.8080  -21.4979   20.3542 H   0  0  0  0  0  0  0  0  0  0  0  0
   -1.9512  -21.5995   21.9287 H   0  0  0  0  0  0  0  0  0  0  0  0
   -0.4650  -19.6760   22.3036 H   0  0  0  0  0  0  0  0  0  0  0  0
    1.2416  -16.0546   17.9277 H   0  0  0  0  0  0  0  0  0  0  0  0
    1.4604  -14.1720   16.6813 H   0  0  0  0  0  0  0  0  0  0  0  0
    4.9574  -10.7418   16.7792 H   0  0  0  0  0  0  0  0  0  0  0  0
    7.2712  -11.2521   17.5045 H   0  0  0  0  0  0  0  0  0  0  0  0
    7.8624  -13.5379   18.2912 H   0  0  0  0  0  0  0  0  0  0  0  0
    6.1177  -15.3168   18.3282 H   0  0  0  0  0  0  0  0  0  0  0  0
   -0.8037  -20.8722   18.2830 H   0  0  0  0  0  0  0  0  0  0  0  0
  1  2  1  0
  2  3  1  0
  3  4  2  0
  4  5  1  0
  5  6  1  0
  6  7  2  0
  6  8  2  0
  6  9  1  0
  9 10  1  0
 10 11  2  0
 10 12  1  0
 12 13  2  0
 13 14  1  0
 14 15  2  0
 15 16  1  0
 16 17  2  0
 17 18  1  0
 18 19  2  0
 19 20  1  0
  5 21  2  0
 21  2  1  0
 20 12  1  0
 20 15  1  0
  1 22  1  0
  1 23  1  0
  1 24  1  0
  3 25  1  0
  9 26  1  0
 13 27  1  0
 16 28  1  0
 17 29  1  0
 18 30  1  0
 19 31  1  0
 21 32  1  0
M  END
>  <Energy>  (37) 
-19.407024800760929

>  <compound_id>  (37) 
46124

>  <target_id>  (37) 
1

>  <reference_id>  (37) 
35

>  <inspiration_ids>  (37) 
[35, 8]

>  <energy_score>  (37) 
-10.351692676341372

>  <distance_score>  (37) 
15.552991346582264

>  <path>  (37) 
/opt/xchem-fragalysis-2/maxwin/BulkDock/SCRATCH/511023/C46124-P35/C46124-P35.minimised.mol

>  <scratch_subdir>  (37) 
/opt/xchem-fragalysis-2/maxwin/BulkDock/SCRATCH/511023/C46124-P35

>  <fragmenstein_runtime>  (37) 
16.47673273086548

>  <fragmenstein_outcome>  (37) 
too moved

>  <fragmenstein_mode>  (37) 
expansion

>  <fragmenstein_error>  (37) 


$$$$
C46124-P8
     RDKit          3D

 32 34  0  0  0  0  0  0  0  0999 V2000
   -2.8542  -15.7682   24.4585 C   0  0  0  0  0  0  0  0  0  0  0  0
   -1.6823  -15.0717   24.4881 N   0  0  0  0  0  0  0  0  0  0  0  0
   -1.9385  -14.1984   25.4518 C   0  0  0  0  0  0  0  0  0  0  0  0
   -0.9141  -13.5022   25.2735 N   0  0  0  0  0  0  0  0  0  0  0  0
    0.4758  -14.0884   24.2289 C   0  0  0  0  0  0  0  0  0  0  0  0
    2.6225  -13.2597   23.9103 S   0  0  0  0  0  0  0  0  0  0  0  0
    2.8046  -14.5269   23.1306 O   0  0  0  0  0  0  0  0  0  0  0  0
    3.5827  -13.6808   24.9180 O   0  0  0  0  0  0  0  0  0  0  0  0
    3.5069  -12.2626   22.3004 N   0  0  0  0  0  0  0  0  0  0  0  0
    4.5602  -10.7841   22.2340 C   0  0  0  0  0  0  0  0  0  0  0  0
    4.8990  -10.0231   23.1145 O   0  0  0  0  0  0  0  0  0  0  0  0
    5.2248  -10.4042   20.9449 C   0  0  0  0  0  0  0  0  0  0  0  0
    5.7768  -11.1207   19.8923 C   0  0  0  0  0  0  0  0  0  0  0  0
    5.9864  -10.3269   18.7847 N   0  0  0  0  0  0  0  0  0  0  0  0
    5.6106   -9.1241   19.1527 C   0  0  0  0  0  0  0  0  0  0  0  0
    5.4327   -7.9187   18.4131 C   0  0  0  0  0  0  0  0  0  0  0  0
    5.3157   -6.7464   19.0582 C   0  0  0  0  0  0  0  0  0  0  0  0
    5.3072   -6.6872   20.5058 C   0  0  0  0  0  0  0  0  0  0  0  0
    5.2933   -7.8400   21.1991 C   0  0  0  0  0  0  0  0  0  0  0  0
    5.3933   -9.0680   20.5248 N   0  0  0  0  0  0  0  0  0  0  0  0
   -0.6276  -14.3706   23.4145 C   0  0  0  0  0  0  0  0  0  0  0  0
   -3.7063  -15.5806   24.9939 H   0  0  0  0  0  0  0  0  0  0  0  0
   -3.3751  -15.5193   23.5603 H   0  0  0  0  0  0  0  0  0  0  0  0
   -2.6348  -16.6700   25.0304 H   0  0  0  0  0  0  0  0  0  0  0  0
   -2.6331  -14.1446   26.2306 H   0  0  0  0  0  0  0  0  0  0  0  0
    3.4837  -12.7361   21.3910 H   0  0  0  0  0  0  0  0  0  0  0  0
    5.9334  -12.1926   19.8373 H   0  0  0  0  0  0  0  0  0  0  0  0
    5.3590   -7.9751   17.3332 H   0  0  0  0  0  0  0  0  0  0  0  0
    5.1399   -5.8350   18.5043 H   0  0  0  0  0  0  0  0  0  0  0  0
    5.2252   -5.7224   20.9939 H   0  0  0  0  0  0  0  0  0  0  0  0
    5.2019   -7.8585   22.2762 H   0  0  0  0  0  0  0  0  0  0  0  0
   -0.7733  -14.7028   22.4020 H   0  0  0  0  0  0  0  0  0  0  0  0
  1  2  1  0
  2  3  1  0
  3  4  2  0
  4  5  1  0
  5  6  1  0
  6  7  2  0
  6  8  2  0
  6  9  1  0
  9 10  1  0
 10 11  2  0
 10 12  1  0
 12 13  2  0
 13 14  1  0
 14 15  2  0
 15 16  1  0
 16 17  2  0
 17 18  1  0
 18 19  2  0
 19 20  1  0
  5 21  2  0
 21  2  1  0
 20 12  1  0
 20 15  1  0
  1 22  1  0
  1 23  1  0
  1 24  1  0
  3 25  1  0
  9 26  1  0
 13 27  1  0
 16 28  1  0
 17 29  1  0
 18 30  1  0
 19 31  1  0
 21 32  1  0
M  END
>  <Energy>  (38) 
398.93309482182178

>  <compound_id>  (38) 
46124

>  <target_id>  (38) 
1

>  <reference_id>  (38) 
8

>  <inspiration_ids>  (38) 
[35, 8]

>  <energy_score>  (38) 
407.98842694624386

>  <distance_score>  (38) 
13.993045296299615

>  <path>  (38) 
/opt/xchem-fragalysis-2/maxwin/BulkDock/SCRATCH/511023/C46124-P8/C46124-P8.minimised.mol

>  <scratch_subdir>  (38) 
/opt/xchem-fragalysis-2/maxwin/BulkDock/SCRATCH/511023/C46124-P8

>  <fragmenstein_runtime>  (38) 
16.431989669799805

>  <fragmenstein_outcome>  (38) 
too moved

>  <fragmenstein_mode>  (38) 
expansion

>  <fragmenstein_error>  (38) 


$$$$
C46132-P35
     RDKit          3D

 36 39  0  0  0  0  0  0  0  0999 V2000
    6.4720   -6.8790   24.3321 O   0  0  0  0  0  0  0  0  0  0  0  0
    7.0411   -7.5800   23.5464 C   0  0  0  0  0  0  0  0  0  0  0  0
    8.4374   -7.6377   23.1744 N   0  0  0  0  0  0  0  0  0  0  0  0
    9.6018   -6.9293   23.7089 C   0  0  0  0  0  0  0  0  0  0  0  0
   10.7072   -6.5087   22.7557 C   0  0  0  0  0  0  0  0  0  0  0  0
   10.9518   -5.2801   22.1526 C   0  0  0  0  0  0  0  0  0  0  0  0
   12.2239   -5.3447   21.6177 N   0  0  0  0  0  0  0  0  0  0  0  0
   12.9776   -4.4024   20.9182 C   0  0  0  0  0  0  0  0  0  0  0  0
   14.2381   -4.6804   20.5512 C   0  0  0  0  0  0  0  0  0  0  0  0
   14.8031   -5.9584   20.9357 C   0  0  0  0  0  0  0  0  0  0  0  0
   14.0751   -6.8694   21.6122 C   0  0  0  0  0  0  0  0  0  0  0  0
   12.7178   -6.5946   21.9537 C   0  0  0  0  0  0  0  0  0  0  0  0
   11.8094   -7.3241   22.5690 N   0  0  0  0  0  0  0  0  0  0  0  0
    6.1952   -8.6167   22.8559 C   0  0  0  0  0  0  0  0  0  0  0  0
    4.8055   -8.6994   22.8817 C   0  0  0  0  0  0  0  0  0  0  0  0
    4.4524   -9.7704   22.0968 N   0  0  0  0  0  0  0  0  0  0  0  0
    5.6146  -10.2308   21.5432 C   0  0  0  0  0  0  0  0  0  0  0  0
    5.7742  -11.1848   20.3308 C   0  0  0  0  0  0  0  0  0  0  0  0
    4.7448  -11.1318   19.2326 C   0  0  0  0  0  0  0  0  0  0  0  0
    4.9139  -12.3660   20.0598 C   0  0  0  0  0  0  0  0  0  0  0  0
    6.6726   -9.6598   22.0893 N   0  0  0  0  0  0  0  0  0  0  0  0
    8.5782   -8.4182   22.5303 H   0  0  0  0  0  0  0  0  0  0  0  0
    9.2272   -6.0449   24.2373 H   0  0  0  0  0  0  0  0  0  0  0  0
   10.0311   -7.5904   24.4706 H   0  0  0  0  0  0  0  0  0  0  0  0
   10.3815   -4.3659   22.1164 H   0  0  0  0  0  0  0  0  0  0  0  0
   12.5148   -3.4609   20.6908 H   0  0  0  0  0  0  0  0  0  0  0  0
   14.8498   -3.9670   20.0104 H   0  0  0  0  0  0  0  0  0  0  0  0
   15.8352   -6.1640   20.6679 H   0  0  0  0  0  0  0  0  0  0  0  0
   14.4937   -7.8270   21.9011 H   0  0  0  0  0  0  0  0  0  0  0  0
    4.0655   -8.0705   23.3550 H   0  0  0  0  0  0  0  0  0  0  0  0
    3.5101  -10.0744   21.8761 H   0  0  0  0  0  0  0  0  0  0  0  0
    6.8105  -11.2748   20.0138 H   0  0  0  0  0  0  0  0  0  0  0  0
    5.1026  -11.1633   18.2084 H   0  0  0  0  0  0  0  0  0  0  0  0
    3.8914  -10.4821   19.3607 H   0  0  0  0  0  0  0  0  0  0  0  0
    5.4007  -13.2043   19.5751 H   0  0  0  0  0  0  0  0  0  0  0  0
    4.1627  -12.6397   20.7774 H   0  0  0  0  0  0  0  0  0  0  0  0
  1  2  2  0
  2  3  1  0
  3  4  1  0
  4  5  1  0
  5  6  2  0
  6  7  1  0
  7  8  1  0
  8  9  2  0
  9 10  1  0
 10 11  2  0
 11 12  1  0
 12 13  2  0
  2 14  1  0
 14 15  2  0
 15 16  1  0
 16 17  1  0
 17 18  1  0
 18 19  1  0
 19 20  1  0
 17 21  2  0
 13  5  1  0
 21 14  1  0
 12  7  1  0
 20 18  1  0
  3 22  1  0
  4 23  1  0
  4 24  1  0
  6 25  1  0
  8 26  1  0
  9 27  1  0
 10 28  1  0
 11 29  1  0
 15 30  1  0
 16 31  1  0
 18 32  1  0
 19 33  1  0
 19 34  1  0
 20 35  1  0
 20 36  1  0
M  END
>  <Energy>  (39) 
51.823031819719191

>  <compound_id>  (39) 
46132

>  <target_id>  (39) 
1

>  <reference_id>  (39) 
35

>  <inspiration_ids>  (39) 
[35, 8]

>  <energy_score>  (39) 
-27.499825434052354

>  <distance_score>  (39) 
18.59053730414887

>  <path>  (39) 
/opt/xchem-fragalysis-2/maxwin/BulkDock/SCRATCH/511023/C46132-P35/C46132-P35.minimised.mol

>  <scratch_subdir>  (39) 
/opt/xchem-fragalysis-2/maxwin/BulkDock/SCRATCH/511023/C46132-P35

>  <fragmenstein_runtime>  (39) 
21.152620553970337

>  <fragmenstein_outcome>  (39) 
too moved

>  <fragmenstein_mode>  (39) 
expansion

>  <fragmenstein_error>  (39) 


$$$$
C46132-P8
     RDKit          3D

 36 39  0  0  0  0  0  0  0  0999 V2000
    4.2147  -14.7234   25.3723 O   0  0  0  0  0  0  0  0  0  0  0  0
    4.2285  -14.6471   26.5719 C   0  0  0  0  0  0  0  0  0  0  0  0
    5.0263  -13.3938   27.4873 N   0  0  0  0  0  0  0  0  0  0  0  0
    6.0031  -12.1515   27.0079 C   0  0  0  0  0  0  0  0  0  0  0  0
    6.8596  -11.7334   25.7508 C   0  0  0  0  0  0  0  0  0  0  0  0
    7.8104  -12.3667   24.9594 C   0  0  0  0  0  0  0  0  0  0  0  0
    8.3365  -11.4247   24.0773 N   0  0  0  0  0  0  0  0  0  0  0  0
    9.2758  -11.5686   23.0482 C   0  0  0  0  0  0  0  0  0  0  0  0
    9.6447  -10.4963   22.3228 C   0  0  0  0  0  0  0  0  0  0  0  0
    9.0584   -9.2036   22.6344 C   0  0  0  0  0  0  0  0  0  0  0  0
    8.1538   -9.0648   23.6260 C   0  0  0  0  0  0  0  0  0  0  0  0
    7.7578  -10.2050   24.4000 C   0  0  0  0  0  0  0  0  0  0  0  0
    6.9272  -10.3489   25.4185 N   0  0  0  0  0  0  0  0  0  0  0  0
    3.4299  -16.1265   27.4734 C   0  0  0  0  0  0  0  0  0  0  0  0
    2.2896  -15.7988   28.0915 C   0  0  0  0  0  0  0  0  0  0  0  0
    1.3538  -16.6511   28.5201 N   0  0  0  0  0  0  0  0  0  0  0  0
    1.1996  -17.4743   27.4900 C   0  0  0  0  0  0  0  0  0  0  0  0
   -0.4585  -18.1747   26.7553 C   0  0  0  0  0  0  0  0  0  0  0  0
   -1.6954  -19.1109   26.9756 C   0  0  0  0  0  0  0  0  0  0  0  0
   -1.8404  -17.6647   26.9381 C   0  0  0  0  0  0  0  0  0  0  0  0
    2.5602  -17.4040   26.9043 N   0  0  0  0  0  0  0  0  0  0  0  0
    4.9591  -13.6037   28.4535 H   0  0  0  0  0  0  0  0  0  0  0  0
    6.8474  -12.3647   27.6797 H   0  0  0  0  0  0  0  0  0  0  0  0
    5.6262  -11.2414   27.4954 H   0  0  0  0  0  0  0  0  0  0  0  0
    8.1437  -13.3939   24.9324 H   0  0  0  0  0  0  0  0  0  0  0  0
    9.6662  -12.5631   22.8741 H   0  0  0  0  0  0  0  0  0  0  0  0
   10.3622  -10.5711   21.5127 H   0  0  0  0  0  0  0  0  0  0  0  0
    9.3827   -8.3595   22.0385 H   0  0  0  0  0  0  0  0  0  0  0  0
    7.7100   -8.1064   23.8655 H   0  0  0  0  0  0  0  0  0  0  0  0
    2.3073  -14.7936   28.1797 H   0  0  0  0  0  0  0  0  0  0  0  0
    0.8452  -16.5815   29.3788 H   0  0  0  0  0  0  0  0  0  0  0  0
   -0.0665  -18.5026   25.8405 H   0  0  0  0  0  0  0  0  0  0  0  0
   -1.5280  -20.0178   27.5328 H   0  0  0  0  0  0  0  0  0  0  0  0
   -2.3744  -19.5274   26.2246 H   0  0  0  0  0  0  0  0  0  0  0  0
   -2.1348  -16.9711   27.6755 H   0  0  0  0  0  0  0  0  0  0  0  0
   -2.3839  -17.3603   26.0511 H   0  0  0  0  0  0  0  0  0  0  0  0
  1  2  2  0
  2  3  1  0
  3  4  1  0
  4  5  1  0
  5  6  2  0
  6  7  1  0
  7  8  1  0
  8  9  2  0
  9 10  1  0
 10 11  2  0
 11 12  1  0
 12 13  2  0
  2 14  1  0
 14 15  2  0
 15 16  1  0
 16 17  1  0
 17 18  1  0
 18 19  1  0
 19 20  1  0
 17 21  2  0
 13  5  1  0
 21 14  1  0
 12  7  1  0
 20 18  1  0
  3 22  1  0
  4 23  1  0
  4 24  1  0
  6 25  1  0
  8 26  1  0
  9 27  1  0
 10 28  1  0
 11 29  1  0
 15 30  1  0
 16 31  1  0
 18 32  1  0
 19 33  1  0
 19 34  1  0
 20 35  1  0
 20 36  1  0
M  END
>  <Energy>  (40) 
369.20068661954178

>  <compound_id>  (40) 
46132

>  <target_id>  (40) 
1

>  <reference_id>  (40) 
8

>  <inspiration_ids>  (40) 
[35, 8]

>  <energy_score>  (40) 
289.8778293657722

>  <distance_score>  (40) 
14.346212106753494

>  <path>  (40) 
/opt/xchem-fragalysis-2/maxwin/BulkDock/SCRATCH/511023/C46132-P8/C46132-P8.minimised.mol

>  <scratch_subdir>  (40) 
/opt/xchem-fragalysis-2/maxwin/BulkDock/SCRATCH/511023/C46132-P8

>  <fragmenstein_runtime>  (40) 
24.129890203475952

>  <fragmenstein_outcome>  (40) 
too moved

>  <fragmenstein_mode>  (40) 
expansion

>  <fragmenstein_error>  (40) 


$$$$
C46135-P35
     RDKit          3D

 32 34  0  0  0  0  0  0  0  0999 V2000
   -4.2642  -16.2392   20.6840 C   0  0  0  0  0  0  0  0  0  0  0  0
   -4.1862  -16.5556   22.2814 C   0  0  0  0  0  0  0  0  0  0  0  0
   -5.3167  -18.0779   22.9003 N   0  0  0  0  0  0  0  0  0  0  0  0
   -4.2965  -19.0575   24.2953 C   0  0  0  0  0  0  0  0  0  0  0  0
   -2.9825  -17.6852   24.9319 N   0  0  0  0  0  0  0  0  0  0  0  0
   -3.0866  -15.9275   23.8067 C   0  0  0  0  0  0  0  0  0  0  0  0
   -1.3492  -14.9735   23.2727 C   0  0  0  0  0  0  0  0  0  0  0  0
   -0.9266  -15.1417   22.1974 O   0  0  0  0  0  0  0  0  0  0  0  0
   -0.4108  -14.0650   24.3510 N   0  0  0  0  0  0  0  0  0  0  0  0
    1.4905  -13.2474   24.2336 C   0  0  0  0  0  0  0  0  0  0  0  0
    2.0349  -11.5411   23.5384 C   0  0  0  0  0  0  0  0  0  0  0  0
    3.3586  -11.0830   23.4122 C   0  0  0  0  0  0  0  0  0  0  0  0
    3.4264   -9.9729   22.6077 N   0  0  0  0  0  0  0  0  0  0  0  0
    4.5478   -9.2541   22.1654 C   0  0  0  0  0  0  0  0  0  0  0  0
    4.3784   -8.2164   21.3283 C   0  0  0  0  0  0  0  0  0  0  0  0
    3.0216   -7.8777   20.9250 C   0  0  0  0  0  0  0  0  0  0  0  0
    1.9508   -8.5756   21.3696 C   0  0  0  0  0  0  0  0  0  0  0  0
    2.1206   -9.6945   22.2536 C   0  0  0  0  0  0  0  0  0  0  0  0
    1.2824  -10.6092   22.7600 N   0  0  0  0  0  0  0  0  0  0  0  0
   -5.2344  -15.7751   20.4749 H   0  0  0  0  0  0  0  0  0  0  0  0
   -3.4232  -15.6362   20.3291 H   0  0  0  0  0  0  0  0  0  0  0  0
   -4.2356  -17.1251   20.0381 H   0  0  0  0  0  0  0  0  0  0  0  0
   -6.1395  -17.7323   23.3507 H   0  0  0  0  0  0  0  0  0  0  0  0
   -4.7681  -19.9304   24.7662 H   0  0  0  0  0  0  0  0  0  0  0  0
   -0.9479  -13.9302   25.1752 H   0  0  0  0  0  0  0  0  0  0  0  0
    1.6612  -13.0878   25.3225 H   0  0  0  0  0  0  0  0  0  0  0  0
    2.3840  -13.6969   23.6410 H   0  0  0  0  0  0  0  0  0  0  0  0
    4.2782  -11.4500   23.8072 H   0  0  0  0  0  0  0  0  0  0  0  0
    5.5180   -9.5899   22.5070 H   0  0  0  0  0  0  0  0  0  0  0  0
    5.2117   -7.6415   20.9401 H   0  0  0  0  0  0  0  0  0  0  0  0
    2.8898   -7.0442   20.2415 H   0  0  0  0  0  0  0  0  0  0  0  0
    0.9440   -8.3289   21.0533 H   0  0  0  0  0  0  0  0  0  0  0  0
  1  2  1  0
  2  3  1  0
  3  4  1  0
  4  5  2  0
  5  6  1  0
  6  7  1  0
  7  8  2  0
  7  9  1  0
  9 10  1  0
 10 11  1  0
 11 12  2  0
 12 13  1  0
 13 14  1  0
 14 15  2  0
 15 16  1  0
 16 17  2  0
 17 18  1  0
 18 19  2  0
  6  2  2  0
 19 11  1  0
 18 13  1  0
  1 20  1  0
  1 21  1  0
  1 22  1  0
  3 23  1  0
  4 24  1  0
  9 25  1  0
 10 26  1  0
 10 27  1  0
 12 28  1  0
 14 29  1  0
 15 30  1  0
 16 31  1  0
 17 32  1  0
M  END
>  <Energy>  (41) 
1048.8977334030226

>  <compound_id>  (41) 
46135

>  <target_id>  (41) 
1

>  <reference_id>  (41) 
35

>  <inspiration_ids>  (41) 
[35, 8]

>  <energy_score>  (41) 
980.8011788884651

>  <distance_score>  (41) 
14.724999324560194

>  <path>  (41) 
/opt/xchem-fragalysis-2/maxwin/BulkDock/SCRATCH/511023/C46135-P35/C46135-P35.minimised.mol

>  <scratch_subdir>  (41) 
/opt/xchem-fragalysis-2/maxwin/BulkDock/SCRATCH/511023/C46135-P35

>  <fragmenstein_runtime>  (41) 
12.063869953155518

>  <fragmenstein_outcome>  (41) 
too moved

>  <fragmenstein_mode>  (41) 
expansion

>  <fragmenstein_error>  (41) 


$$$$
C46135-P8
     RDKit          3D

 32 34  0  0  0  0  0  0  0  0999 V2000
    7.7859  -12.0666   26.9387 C   0  0  0  0  0  0  0  0  0  0  0  0
    6.8800  -10.9876   27.3932 C   0  0  0  0  0  0  0  0  0  0  0  0
    5.9759  -11.1550   28.4163 N   0  0  0  0  0  0  0  0  0  0  0  0
    5.3299   -9.9699   28.6035 C   0  0  0  0  0  0  0  0  0  0  0  0
    5.7366   -9.0637   27.7398 N   0  0  0  0  0  0  0  0  0  0  0  0
    6.7282   -9.6704   26.9555 C   0  0  0  0  0  0  0  0  0  0  0  0
    7.3424   -9.0237   25.7232 C   0  0  0  0  0  0  0  0  0  0  0  0
    7.8410   -9.7396   24.9060 O   0  0  0  0  0  0  0  0  0  0  0  0
    7.1234   -7.6068   25.7168 N   0  0  0  0  0  0  0  0  0  0  0  0
    7.3480   -6.6062   24.6754 C   0  0  0  0  0  0  0  0  0  0  0  0
    8.7500   -6.2280   24.2358 C   0  0  0  0  0  0  0  0  0  0  0  0
    9.5275   -5.1321   24.5908 C   0  0  0  0  0  0  0  0  0  0  0  0
   10.6198   -5.1257   23.7485 N   0  0  0  0  0  0  0  0  0  0  0  0
   11.6771   -4.2259   23.6384 C   0  0  0  0  0  0  0  0  0  0  0  0
   12.6333   -4.4414   22.7165 C   0  0  0  0  0  0  0  0  0  0  0  0
   12.5574   -5.6282   21.8849 C   0  0  0  0  0  0  0  0  0  0  0  0
   11.5376   -6.4969   22.0133 C   0  0  0  0  0  0  0  0  0  0  0  0
   10.4883   -6.2377   22.9359 C   0  0  0  0  0  0  0  0  0  0  0  0
    9.3403   -6.8513   23.1471 N   0  0  0  0  0  0  0  0  0  0  0  0
    8.2343  -12.5833   27.7923 H   0  0  0  0  0  0  0  0  0  0  0  0
    7.2326  -12.7911   26.3405 H   0  0  0  0  0  0  0  0  0  0  0  0
    8.6105  -11.6800   26.3339 H   0  0  0  0  0  0  0  0  0  0  0  0
    5.8087  -11.9972   28.9426 H   0  0  0  0  0  0  0  0  0  0  0  0
    4.5762   -9.8260   29.3667 H   0  0  0  0  0  0  0  0  0  0  0  0
    6.5959   -7.3503   26.5471 H   0  0  0  0  0  0  0  0  0  0  0  0
    6.8117   -6.9708   23.7908 H   0  0  0  0  0  0  0  0  0  0  0  0
    6.8314   -5.6989   25.0094 H   0  0  0  0  0  0  0  0  0  0  0  0
    9.3836   -4.3574   25.3296 H   0  0  0  0  0  0  0  0  0  0  0  0
   11.6781   -3.3651   24.2942 H   0  0  0  0  0  0  0  0  0  0  0  0
   13.4611   -3.7529   22.5825 H   0  0  0  0  0  0  0  0  0  0  0  0
   13.3680   -5.8102   21.1880 H   0  0  0  0  0  0  0  0  0  0  0  0
   11.4880   -7.4185   21.4530 H   0  0  0  0  0  0  0  0  0  0  0  0
  1  2  1  0
  2  3  1  0
  3  4  1  0
  4  5  2  0
  5  6  1  0
  6  7  1  0
  7  8  2  0
  7  9  1  0
  9 10  1  0
 10 11  1  0
 11 12  2  0
 12 13  1  0
 13 14  1  0
 14 15  2  0
 15 16  1  0
 16 17  2  0
 17 18  1  0
 18 19  2  0
  6  2  2  0
 19 11  1  0
 18 13  1  0
  1 20  1  0
  1 21  1  0
  1 22  1  0
  3 23  1  0
  4 24  1  0
  9 25  1  0
 10 26  1  0
 10 27  1  0
 12 28  1  0
 14 29  1  0
 15 30  1  0
 16 31  1  0
 17 32  1  0
M  END
>  <Energy>  (42) 
49.850334655369991

>  <compound_id>  (42) 
46135

>  <target_id>  (42) 
1

>  <reference_id>  (42) 
8

>  <inspiration_ids>  (42) 
[35, 8]

>  <energy_score>  (42) 
-18.24621985919748

>  <distance_score>  (42) 
16.251087885030223

>  <path>  (42) 
/opt/xchem-fragalysis-2/maxwin/BulkDock/SCRATCH/511023/C46135-P8/C46135-P8.minimised.mol

>  <scratch_subdir>  (42) 
/opt/xchem-fragalysis-2/maxwin/BulkDock/SCRATCH/511023/C46135-P8

>  <fragmenstein_runtime>  (42) 
26.302873134613037

>  <fragmenstein_outcome>  (42) 
too moved

>  <fragmenstein_mode>  (42) 
expansion

>  <fragmenstein_error>  (42) 


$$$$
C46147-P93
     RDKit          3D

 44 47  0  0  0  0  0  0  0  0999 V2000
    9.7032    0.5292   13.0473 C   0  0  0  0  0  0  0  0  0  0  0  0
    8.2144   -0.3167   13.3149 C   0  0  0  0  0  0  0  0  0  0  0  0
    6.5283   -0.3804   12.4122 N   0  0  0  0  0  0  0  0  0  0  0  0
    5.0936    0.8038   11.8475 C   0  0  0  0  0  0  0  0  0  0  0  0
    3.1636    1.1273   12.3376 C   0  0  0  0  0  0  0  0  0  0  0  0
    2.3946    1.9022   13.2555 C   0  0  0  0  0  0  0  0  0  0  0  0
    1.0615    1.1703   13.9245 C   0  0  0  0  0  0  0  0  0  0  0  0
    0.4848   -0.0940   13.1429 C   0  0  0  0  0  0  0  0  0  0  0  0
   -1.2410   -0.0752   12.3014 C   0  0  0  0  0  0  0  0  0  0  0  0
   -2.9714    0.2250   12.7483 C   0  0  0  0  0  0  0  0  0  0  0  0
   -4.5836   -0.2409   11.8725 C   0  0  0  0  0  0  0  0  0  0  0  0
   -3.7922   -0.1097   10.9801 N   0  0  0  0  0  0  0  0  0  0  0  0
   -2.6188   -0.6710   12.3699 N   0  0  0  0  0  0  0  0  0  0  0  0
    2.0183   -0.1774   12.3981 O   0  0  0  0  0  0  0  0  0  0  0  0
    8.5490   -0.9496   14.9570 C   0  0  0  0  0  0  0  0  0  0  0  0
    8.9167    0.1233   15.8442 C   0  0  0  0  0  0  0  0  0  0  0  0
   10.2690    0.3466   16.1576 C   0  0  0  0  0  0  0  0  0  0  0  0
   11.1935   -0.6512   15.9114 C   0  0  0  0  0  0  0  0  0  0  0  0
   10.7540   -1.8653   15.4115 C   0  0  0  0  0  0  0  0  0  0  0  0
    9.4283   -2.0295   15.0022 C   0  0  0  0  0  0  0  0  0  0  0  0
   11.8895   -2.8245   15.2490 C   0  0  0  0  0  0  0  0  0  0  0  0
   12.9923   -2.1469   16.0753 C   0  0  0  0  0  0  0  0  0  0  0  0
   12.6818   -0.6437   16.0718 C   0  0  0  0  0  0  0  0  0  0  0  0
   10.5957   -0.0949   13.1444 H   0  0  0  0  0  0  0  0  0  0  0  0
    9.8539    1.1465   12.1890 H   0  0  0  0  0  0  0  0  0  0  0  0
    9.8201    1.3060   13.8182 H   0  0  0  0  0  0  0  0  0  0  0  0
    8.0805    0.4926   13.9635 H   0  0  0  0  0  0  0  0  0  0  0  0
    6.9467   -0.4756   11.4733 H   0  0  0  0  0  0  0  0  0  0  0  0
    4.8363    0.1650   10.9764 H   0  0  0  0  0  0  0  0  0  0  0  0
    5.4626    1.6988   11.3412 H   0  0  0  0  0  0  0  0  0  0  0  0
    2.6736    2.8781   13.6321 H   0  0  0  0  0  0  0  0  0  0  0  0
    0.4306    1.7936   14.5523 H   0  0  0  0  0  0  0  0  0  0  0  0
   -2.7720    1.2676   13.2435 H   0  0  0  0  0  0  0  0  0  0  0  0
   -5.6769   -0.1735   12.0720 H   0  0  0  0  0  0  0  0  0  0  0  0
   -2.6816   -1.6299   12.6968 H   0  0  0  0  0  0  0  0  0  0  0  0
    8.2421    0.9718   15.9769 H   0  0  0  0  0  0  0  0  0  0  0  0
   10.5772    1.3222   16.5247 H   0  0  0  0  0  0  0  0  0  0  0  0
    9.1166   -2.9524   14.5587 H   0  0  0  0  0  0  0  0  0  0  0  0
   11.6505   -3.8151   15.6427 H   0  0  0  0  0  0  0  0  0  0  0  0
   12.1690   -2.8880   14.1930 H   0  0  0  0  0  0  0  0  0  0  0  0
   12.9507   -2.5245   17.1057 H   0  0  0  0  0  0  0  0  0  0  0  0
   13.9943   -2.3682   15.6949 H   0  0  0  0  0  0  0  0  0  0  0  0
   13.0122   -0.1660   16.9969 H   0  0  0  0  0  0  0  0  0  0  0  0
   13.1455   -0.1479   15.2126 H   0  0  0  0  0  0  0  0  0  0  0  0
  1  2  1  0
  2  3  1  0
  3  4  1  0
  4  5  1  0
  5  6  2  0
  6  7  1  0
  7  8  2  0
  8  9  1  0
  9 10  2  0
 10 11  1  0
 11 12  2  0
 12 13  1  0
  8 14  1  0
  2 15  1  0
 15 16  2  0
 16 17  1  0
 17 18  2  0
 18 19  1  0
 19 20  2  0
 19 21  1  0
 21 22  1  0
 22 23  1  0
 14  5  1  0
 20 15  1  0
 13  9  1  0
 23 18  1  0
  1 24  1  0
  1 25  1  0
  1 26  1  0
  2 27  1  0
  3 28  1  0
  4 29  1  0
  4 30  1  0
  6 31  1  0
  7 32  1  0
 10 33  1  0
 11 34  1  0
 13 35  1  0
 16 36  1  0
 17 37  1  0
 20 38  1  0
 21 39  1  0
 21 40  1  0
 22 41  1  0
 22 42  1  0
 23 43  1  0
 23 44  1  0
M  END
>  <Energy>  (43) 
1054.5943336838975

>  <compound_id>  (43) 
46147

>  <target_id>  (43) 
1

>  <reference_id>  (43) 
93

>  <inspiration_ids>  (43) 
[93, 127]

>  <energy_score>  (43) 
985.2084940998764

>  <distance_score>  (43) 
8.140079230257886

>  <path>  (43) 
/opt/xchem-fragalysis-2/maxwin/BulkDock/SCRATCH/511023/C46147-P93/C46147-P93.minimised.mol

>  <scratch_subdir>  (43) 
/opt/xchem-fragalysis-2/maxwin/BulkDock/SCRATCH/511023/C46147-P93

>  <fragmenstein_runtime>  (43) 
7.424798250198364

>  <fragmenstein_outcome>  (43) 
too moved

>  <fragmenstein_mode>  (43) 
expansion

>  <fragmenstein_error>  (43) 


$$$$
C46147-P127
     RDKit          3D

 44 47  0  0  0  0  0  0  0  0999 V2000
    6.0807   -1.4266   10.4056 C   0  0  0  0  0  0  0  0  0  0  0  0
    5.3856   -1.4456   11.7527 C   0  0  0  0  0  0  0  0  0  0  0  0
    3.7435   -0.6268   11.2747 N   0  0  0  0  0  0  0  0  0  0  0  0
    2.4654    0.3267   12.2512 C   0  0  0  0  0  0  0  0  0  0  0  0
    0.7203    0.1290   13.0679 C   0  0  0  0  0  0  0  0  0  0  0  0
    0.0101    1.3635   13.6838 C   0  0  0  0  0  0  0  0  0  0  0  0
   -1.6322    1.5275   13.0753 C   0  0  0  0  0  0  0  0  0  0  0  0
   -2.4551    0.0940   12.6012 C   0  0  0  0  0  0  0  0  0  0  0  0
   -4.1815   -0.3084   11.6998 C   0  0  0  0  0  0  0  0  0  0  0  0
   -5.8244   -0.4135   11.9431 C   0  0  0  0  0  0  0  0  0  0  0  0
   -6.5999   -0.4481   10.3036 C   0  0  0  0  0  0  0  0  0  0  0  0
   -5.6263   -0.3952    9.3273 N   0  0  0  0  0  0  0  0  0  0  0  0
   -4.2685   -0.3377    9.9911 N   0  0  0  0  0  0  0  0  0  0  0  0
   -0.7778   -0.4624   12.3017 O   0  0  0  0  0  0  0  0  0  0  0  0
    6.5650   -1.7013   13.2059 C   0  0  0  0  0  0  0  0  0  0  0  0
    6.5614   -2.6960   14.2178 C   0  0  0  0  0  0  0  0  0  0  0  0
    7.8196   -3.0002   15.1074 C   0  0  0  0  0  0  0  0  0  0  0  0
    9.0452   -2.2937   15.1854 C   0  0  0  0  0  0  0  0  0  0  0  0
    9.0127   -1.1171   14.5400 C   0  0  0  0  0  0  0  0  0  0  0  0
    7.7832   -0.9867   13.6892 C   0  0  0  0  0  0  0  0  0  0  0  0
   10.3239   -0.4117   14.5065 C   0  0  0  0  0  0  0  0  0  0  0  0
   11.2705   -1.5678   14.8586 C   0  0  0  0  0  0  0  0  0  0  0  0
   10.4312   -2.5672   15.6736 C   0  0  0  0  0  0  0  0  0  0  0  0
    6.9859   -2.0209   10.4189 H   0  0  0  0  0  0  0  0  0  0  0  0
    6.2678   -0.3992   10.1043 H   0  0  0  0  0  0  0  0  0  0  0  0
    5.4376   -1.8610    9.6303 H   0  0  0  0  0  0  0  0  0  0  0  0
    4.9767   -2.4752   11.7529 H   0  0  0  0  0  0  0  0  0  0  0  0
    4.1174    0.1432   10.7094 H   0  0  0  0  0  0  0  0  0  0  0  0
    2.3730    1.1341   11.5216 H   0  0  0  0  0  0  0  0  0  0  0  0
    2.9720    0.9689   12.9955 H   0  0  0  0  0  0  0  0  0  0  0  0
    0.5330    2.2488   14.0271 H   0  0  0  0  0  0  0  0  0  0  0  0
   -2.0510    2.5085   13.1880 H   0  0  0  0  0  0  0  0  0  0  0  0
   -6.4198   -0.2931   12.8315 H   0  0  0  0  0  0  0  0  0  0  0  0
   -7.6706   -0.4229   10.1290 H   0  0  0  0  0  0  0  0  0  0  0  0
   -3.4201   -0.3488    9.4368 H   0  0  0  0  0  0  0  0  0  0  0  0
    5.7039   -3.3521   14.3550 H   0  0  0  0  0  0  0  0  0  0  0  0
    7.7886   -3.8960   15.6824 H   0  0  0  0  0  0  0  0  0  0  0  0
    7.3827   -0.9762   14.7832 H   0  0  0  0  0  0  0  0  0  0  0  0
   10.5599    0.0208   13.5306 H   0  0  0  0  0  0  0  0  0  0  0  0
   10.3488    0.3677   15.2745 H   0  0  0  0  0  0  0  0  0  0  0  0
   11.6180   -2.0571   13.9407 H   0  0  0  0  0  0  0  0  0  0  0  0
   12.1615   -1.2302   15.3973 H   0  0  0  0  0  0  0  0  0  0  0  0
   10.7513   -3.5950   15.4824 H   0  0  0  0  0  0  0  0  0  0  0  0
   10.5438   -2.3203   16.7247 H   0  0  0  0  0  0  0  0  0  0  0  0
  1  2  1  0
  2  3  1  0
  3  4  1  0
  4  5  1  0
  5  6  2  0
  6  7  1  0
  7  8  2  0
  8  9  1  0
  9 10  2  0
 10 11  1  0
 11 12  2  0
 12 13  1  0
  8 14  1  0
  2 15  1  0
 15 16  2  0
 16 17  1  0
 17 18  2  0
 18 19  1  0
 19 20  2  0
 19 21  1  0
 21 22  1  0
 22 23  1  0
 14  5  1  0
 20 15  1  0
 13  9  1  0
 23 18  1  0
  1 24  1  0
  1 25  1  0
  1 26  1  0
  2 27  1  0
  3 28  1  0
  4 29  1  0
  4 30  1  0
  6 31  1  0
  7 32  1  0
 10 33  1  0
 11 34  1  0
 13 35  1  0
 16 36  1  0
 17 37  1  0
 20 38  1  0
 21 39  1  0
 21 40  1  0
 22 41  1  0
 22 42  1  0
 23 43  1  0
 23 44  1  0
M  END
>  <Energy>  (44) 
837.78903171984985

>  <compound_id>  (44) 
46147

>  <target_id>  (44) 
1

>  <reference_id>  (44) 
127

>  <inspiration_ids>  (44) 
[93, 127]

>  <energy_score>  (44) 
768.4031921358305

>  <distance_score>  (44) 
8.346694398591055

>  <path>  (44) 
/opt/xchem-fragalysis-2/maxwin/BulkDock/SCRATCH/511023/C46147-P127/C46147-P127.minimised.mol

>  <scratch_subdir>  (44) 
/opt/xchem-fragalysis-2/maxwin/BulkDock/SCRATCH/511023/C46147-P127

>  <fragmenstein_runtime>  (44) 
6.809166431427002

>  <fragmenstein_outcome>  (44) 
too moved

>  <fragmenstein_mode>  (44) 
expansion

>  <fragmenstein_error>  (44) 


$$$$
C30247-P93
     RDKit          3D

 40 42  0  0  0  0  0  0  0  0999 V2000
    2.4843   -3.4649   18.5320 C   0  0  0  0  0  0  0  0  0  0  0  0
    2.4697   -3.4328   17.0021 C   0  0  0  0  0  0  0  0  0  0  0  0
    1.0560   -2.0753   16.5002 C   0  0  0  0  0  0  0  0  0  0  0  0
   -0.0909   -1.9228   14.9793 N   0  0  0  0  0  0  0  0  0  0  0  0
    0.0630   -0.9027   13.3614 C   0  0  0  0  0  0  0  0  0  0  0  0
    1.0490   -0.2739   13.0604 O   0  0  0  0  0  0  0  0  0  0  0  0
   -1.6732   -0.7562   12.2201 C   0  0  0  0  0  0  0  0  0  0  0  0
   -3.6187   -0.4054   11.8452 C   0  0  0  0  0  0  0  0  0  0  0  0
   -4.5495   -0.4980   10.6318 C   0  0  0  0  0  0  0  0  0  0  0  0
   -4.7647   -0.2179   11.8434 N   0  0  0  0  0  0  0  0  0  0  0  0
   -3.1792   -0.2701   12.8175 N   0  0  0  0  0  0  0  0  0  0  0  0
    4.1874   -2.8933   16.7196 N   0  0  0  0  0  0  0  0  0  0  0  0
    5.2334   -2.9923   15.2312 C   0  0  0  0  0  0  0  0  0  0  0  0
    4.9561   -3.5368   14.1842 O   0  0  0  0  0  0  0  0  0  0  0  0
    6.8841   -2.0467   15.2056 C   0  0  0  0  0  0  0  0  0  0  0  0
    7.2836   -0.8891   15.9495 C   0  0  0  0  0  0  0  0  0  0  0  0
    8.5128   -0.1315   16.0520 C   0  0  0  0  0  0  0  0  0  0  0  0
    9.6159   -0.7901   15.5855 C   0  0  0  0  0  0  0  0  0  0  0  0
   10.9582   -0.4982   15.6116 N   0  0  0  0  0  0  0  0  0  0  0  0
   11.6737   -1.5985   15.2298 C   0  0  0  0  0  0  0  0  0  0  0  0
   10.7705   -2.5571   14.8298 C   0  0  0  0  0  0  0  0  0  0  0  0
    9.4427   -2.0279   14.9966 C   0  0  0  0  0  0  0  0  0  0  0  0
    8.0726   -2.4796   14.6963 C   0  0  0  0  0  0  0  0  0  0  0  0
    3.2584   -4.1465   18.8986 H   0  0  0  0  0  0  0  0  0  0  0  0
    1.5221   -3.8014   18.9257 H   0  0  0  0  0  0  0  0  0  0  0  0
    2.6917   -2.4712   18.9424 H   0  0  0  0  0  0  0  0  0  0  0  0
    2.4744   -4.4085   16.5211 H   0  0  0  0  0  0  0  0  0  0  0  0
    1.3582   -1.0045   16.6369 H   0  0  0  0  0  0  0  0  0  0  0  0
    0.3500   -1.9940   17.3586 H   0  0  0  0  0  0  0  0  0  0  0  0
   -0.9699   -2.4365   14.9758 H   0  0  0  0  0  0  0  0  0  0  0  0
   -3.4767   -0.0921   10.3883 H   0  0  0  0  0  0  0  0  0  0  0  0
   -4.7885   -0.6558    9.5508 H   0  0  0  0  0  0  0  0  0  0  0  0
   -5.6000    0.0603   12.3919 H   0  0  0  0  0  0  0  0  0  0  0  0
    4.6346   -2.3037   17.4181 H   0  0  0  0  0  0  0  0  0  0  0  0
    6.5845   -0.5322   16.6604 H   0  0  0  0  0  0  0  0  0  0  0  0
    8.5616    0.7955   16.6121 H   0  0  0  0  0  0  0  0  0  0  0  0
   11.3632    0.3770   15.9153 H   0  0  0  0  0  0  0  0  0  0  0  0
   12.7556   -1.5954   15.2292 H   0  0  0  0  0  0  0  0  0  0  0  0
   11.0289   -3.5228   14.4198 H   0  0  0  0  0  0  0  0  0  0  0  0
    7.9832   -3.2474   14.0049 H   0  0  0  0  0  0  0  0  0  0  0  0
  1  2  1  0
  2  3  1  0
  3  4  1  0
  4  5  1  0
  5  6  2  0
  5  7  1  0
  7  8  1  0
  8  9  2  0
  9 10  1  0
 10 11  1  0
  2 12  1  0
 12 13  1  0
 13 14  2  0
 13 15  1  0
 15 16  2  0
 16 17  1  0
 17 18  2  0
 18 19  1  0
 19 20  1  0
 20 21  2  0
 21 22  1  0
 22 23  2  0
 11  7  2  0
 23 15  1  0
 22 18  1  0
  1 24  1  0
  1 25  1  0
  1 26  1  0
  2 27  1  0
  3 28  1  0
  3 29  1  0
  4 30  1  0
  8 31  1  0
  9 32  1  0
 10 33  1  0
 12 34  1  0
 16 35  1  0
 17 36  1  0
 19 37  1  0
 20 38  1  0
 21 39  1  0
 23 40  1  0
M  END
>  <Energy>  (45) 
1232.8154090830424

>  <compound_id>  (45) 
30247

>  <target_id>  (45) 
1

>  <reference_id>  (45) 
93

>  <inspiration_ids>  (45) 
[93, 127]

>  <energy_score>  (45) 
1160.1250090327708

>  <distance_score>  (45) 
9.021381543212463

>  <path>  (45) 
/opt/xchem-fragalysis-2/maxwin/BulkDock/SCRATCH/511023/C30247-P93/C30247-P93.minimised.mol

>  <scratch_subdir>  (45) 
/opt/xchem-fragalysis-2/maxwin/BulkDock/SCRATCH/511023/C30247-P93

>  <fragmenstein_runtime>  (45) 
13.57267141342163

>  <fragmenstein_outcome>  (45) 
too moved

>  <fragmenstein_mode>  (45) 
expansion

>  <fragmenstein_error>  (45) 


$$$$
C30247-P127
     RDKit          3D

 40 42  0  0  0  0  0  0  0  0999 V2000
    5.6799    5.2386   14.5435 C   0  0  0  0  0  0  0  0  0  0  0  0
    5.6186    4.8686   16.0188 C   0  0  0  0  0  0  0  0  0  0  0  0
    4.1967    4.4950   16.5637 C   0  0  0  0  0  0  0  0  0  0  0  0
    3.0547    4.2283   15.6807 N   0  0  0  0  0  0  0  0  0  0  0  0
    2.1863    5.1232   14.9656 C   0  0  0  0  0  0  0  0  0  0  0  0
    2.2215    6.3137   14.8435 O   0  0  0  0  0  0  0  0  0  0  0  0
    0.9823    4.4176   14.3604 C   0  0  0  0  0  0  0  0  0  0  0  0
    0.0675    4.9778   13.4068 C   0  0  0  0  0  0  0  0  0  0  0  0
   -0.9094    4.0354   13.2002 C   0  0  0  0  0  0  0  0  0  0  0  0
   -0.6010    3.0097   14.0374 N   0  0  0  0  0  0  0  0  0  0  0  0
    0.5508    3.1868   14.7219 N   0  0  0  0  0  0  0  0  0  0  0  0
    6.7039    3.9026   16.2859 N   0  0  0  0  0  0  0  0  0  0  0  0
    8.0058    4.0824   16.8867 C   0  0  0  0  0  0  0  0  0  0  0  0
    8.5052    5.0460   17.3946 O   0  0  0  0  0  0  0  0  0  0  0  0
    8.9680    2.8919   16.7805 C   0  0  0  0  0  0  0  0  0  0  0  0
   10.3474    3.1724   16.6966 C   0  0  0  0  0  0  0  0  0  0  0  0
   11.3283    2.1777   16.5234 C   0  0  0  0  0  0  0  0  0  0  0  0
   10.8855    0.8639   16.3766 C   0  0  0  0  0  0  0  0  0  0  0  0
   11.5922   -0.2948   16.1394 N   0  0  0  0  0  0  0  0  0  0  0  0
   10.7240   -1.3390   15.9629 C   0  0  0  0  0  0  0  0  0  0  0  0
    9.4465   -0.8596   16.1408 C   0  0  0  0  0  0  0  0  0  0  0  0
    9.5337    0.5280   16.4459 C   0  0  0  0  0  0  0  0  0  0  0  0
    8.5800    1.5474   16.7176 C   0  0  0  0  0  0  0  0  0  0  0  0
    5.3915    4.3964   13.9065 H   0  0  0  0  0  0  0  0  0  0  0  0
    5.0107    6.0761   14.3239 H   0  0  0  0  0  0  0  0  0  0  0  0
    6.6929    5.5390   14.2527 H   0  0  0  0  0  0  0  0  0  0  0  0
    5.9272    5.7621   16.5783 H   0  0  0  0  0  0  0  0  0  0  0  0
    3.8665    5.3487   17.1700 H   0  0  0  0  0  0  0  0  0  0  0  0
    4.2669    3.6495   17.2512 H   0  0  0  0  0  0  0  0  0  0  0  0
    2.6706    3.2844   15.6329 H   0  0  0  0  0  0  0  0  0  0  0  0
    0.1485    5.9512   12.9418 H   0  0  0  0  0  0  0  0  0  0  0  0
   -1.7646    4.0223   12.5449 H   0  0  0  0  0  0  0  0  0  0  0  0
   -1.1213    2.1548   14.2000 H   0  0  0  0  0  0  0  0  0  0  0  0
    6.5890    2.9318   16.0312 H   0  0  0  0  0  0  0  0  0  0  0  0
   10.6825    4.2074   16.7787 H   0  0  0  0  0  0  0  0  0  0  0  0
   12.3799    2.4413   16.4786 H   0  0  0  0  0  0  0  0  0  0  0  0
   12.5974   -0.3444   16.0376 H   0  0  0  0  0  0  0  0  0  0  0  0
   11.0889   -2.3238   15.6980 H   0  0  0  0  0  0  0  0  0  0  0  0
    8.5441   -1.4417   16.0211 H   0  0  0  0  0  0  0  0  0  0  0  0
    7.5404    1.2771   16.8214 H   0  0  0  0  0  0  0  0  0  0  0  0
  1  2  1  0
  2  3  1  0
  3  4  1  0
  4  5  1  0
  5  6  2  0
  5  7  1  0
  7  8  1  0
  8  9  2  0
  9 10  1  0
 10 11  1  0
  2 12  1  0
 12 13  1  0
 13 14  2  0
 13 15  1  0
 15 16  2  0
 16 17  1  0
 17 18  2  0
 18 19  1  0
 19 20  1  0
 20 21  2  0
 21 22  1  0
 22 23  2  0
 11  7  2  0
 23 15  1  0
 22 18  1  0
  1 24  1  0
  1 25  1  0
  1 26  1  0
  2 27  1  0
  3 28  1  0
  3 29  1  0
  4 30  1  0
  8 31  1  0
  9 32  1  0
 10 33  1  0
 12 34  1  0
 16 35  1  0
 17 36  1  0
 19 37  1  0
 20 38  1  0
 21 39  1  0
 23 40  1  0
M  END
>  <Energy>  (46) 
68.352879893283458

>  <compound_id>  (46) 
30247

>  <target_id>  (46) 
1

>  <reference_id>  (46) 
127

>  <inspiration_ids>  (46) 
[93, 127]

>  <energy_score>  (46) 
-4.337520156983317

>  <distance_score>  (46) 
10.140559579520357

>  <path>  (46) 
/opt/xchem-fragalysis-2/maxwin/BulkDock/SCRATCH/511023/C30247-P127/C30247-P127.minimised.mol

>  <scratch_subdir>  (46) 
/opt/xchem-fragalysis-2/maxwin/BulkDock/SCRATCH/511023/C30247-P127

>  <fragmenstein_runtime>  (46) 
13.380728721618652

>  <fragmenstein_outcome>  (46) 
too moved

>  <fragmenstein_mode>  (46) 
expansion

>  <fragmenstein_error>  (46) 


$$$$
C30248-P93
     RDKit          3D

 40 42  0  0  0  0  0  0  0  0999 V2000
    5.0696    0.8664   10.6336 C   0  0  0  0  0  0  0  0  0  0  0  0
    4.8982   -0.6012   10.9371 C   0  0  0  0  0  0  0  0  0  0  0  0
    6.0782   -1.4563   11.4787 C   0  0  0  0  0  0  0  0  0  0  0  0
    7.0670   -1.0710   12.5118 N   0  0  0  0  0  0  0  0  0  0  0  0
    7.2124   -1.4954   13.9115 C   0  0  0  0  0  0  0  0  0  0  0  0
    6.5157   -2.1995   14.5904 O   0  0  0  0  0  0  0  0  0  0  0  0
    8.5536   -1.0711   14.6698 C   0  0  0  0  0  0  0  0  0  0  0  0
    9.3744   -2.1595   14.9967 C   0  0  0  0  0  0  0  0  0  0  0  0
   10.7378   -2.1076   15.3793 C   0  0  0  0  0  0  0  0  0  0  0  0
   11.2866   -0.8478   15.5166 C   0  0  0  0  0  0  0  0  0  0  0  0
   12.5606   -0.4589   15.8529 N   0  0  0  0  0  0  0  0  0  0  0  0
   12.6359    0.9088   15.8614 C   0  0  0  0  0  0  0  0  0  0  0  0
   11.3940    1.4003   15.5232 C   0  0  0  0  0  0  0  0  0  0  0  0
   10.5282    0.2955   15.2905 C   0  0  0  0  0  0  0  0  0  0  0  0
    9.1681    0.1666   14.8730 C   0  0  0  0  0  0  0  0  0  0  0  0
    4.2904   -1.1516    9.7044 N   0  0  0  0  0  0  0  0  0  0  0  0
    2.9454   -1.4738    9.3963 C   0  0  0  0  0  0  0  0  0  0  0  0
    1.9725   -1.4594   10.0746 O   0  0  0  0  0  0  0  0  0  0  0  0
    2.6922   -1.7898    7.9514 C   0  0  0  0  0  0  0  0  0  0  0  0
    1.8275   -2.8155    7.4395 C   0  0  0  0  0  0  0  0  0  0  0  0
    1.5525   -2.4727    6.1389 C   0  0  0  0  0  0  0  0  0  0  0  0
    2.2614   -1.3351    5.9160 N   0  0  0  0  0  0  0  0  0  0  0  0
    3.0110   -0.9294    6.9628 N   0  0  0  0  0  0  0  0  0  0  0  0
    4.1051    1.3146   10.3596 H   0  0  0  0  0  0  0  0  0  0  0  0
    5.4073    1.4034   11.4995 H   0  0  0  0  0  0  0  0  0  0  0  0
    5.7267    1.0378    9.7809 H   0  0  0  0  0  0  0  0  0  0  0  0
    4.1107   -0.6573   11.6995 H   0  0  0  0  0  0  0  0  0  0  0  0
    5.5910   -2.3580   11.8614 H   0  0  0  0  0  0  0  0  0  0  0  0
    6.6807   -1.7770   10.6218 H   0  0  0  0  0  0  0  0  0  0  0  0
    7.8907   -0.5406   12.2379 H   0  0  0  0  0  0  0  0  0  0  0  0
    8.9427   -3.1403   14.8247 H   0  0  0  0  0  0  0  0  0  0  0  0
   11.3043   -3.0211   15.5283 H   0  0  0  0  0  0  0  0  0  0  0  0
   13.3234   -1.0931   16.0497 H   0  0  0  0  0  0  0  0  0  0  0  0
   13.5627    1.4122   16.1025 H   0  0  0  0  0  0  0  0  0  0  0  0
   11.1394    2.4483   15.4346 H   0  0  0  0  0  0  0  0  0  0  0  0
    8.6651    1.0894   14.7027 H   0  0  0  0  0  0  0  0  0  0  0  0
    4.8431   -1.1978    8.8546 H   0  0  0  0  0  0  0  0  0  0  0  0
    1.3831   -3.6329    7.9812 H   0  0  0  0  0  0  0  0  0  0  0  0
    0.9203   -2.9167    5.3845 H   0  0  0  0  0  0  0  0  0  0  0  0
    2.3118   -0.7931    5.0602 H   0  0  0  0  0  0  0  0  0  0  0  0
  1  2  1  0
  2  3  1  0
  3  4  1  0
  4  5  1  0
  5  6  2  0
  5  7  1  0
  7  8  2  0
  8  9  1  0
  9 10  2  0
 10 11  1  0
 11 12  1  0
 12 13  2  0
 13 14  1  0
 14 15  2  0
  2 16  1  0
 16 17  1  0
 17 18  2  0
 17 19  1  0
 19 20  1  0
 20 21  2  0
 21 22  1  0
 22 23  1  0
 15  7  1  0
 23 19  2  0
 14 10  1  0
  1 24  1  0
  1 25  1  0
  1 26  1  0
  2 27  1  0
  3 28  1  0
  3 29  1  0
  4 30  1  0
  8 31  1  0
  9 32  1  0
 11 33  1  0
 12 34  1  0
 13 35  1  0
 15 36  1  0
 16 37  1  0
 20 38  1  0
 21 39  1  0
 22 40  1  0
M  END
>  <Energy>  (47) 
95.753924349337495

>  <compound_id>  (47) 
30248

>  <target_id>  (47) 
1

>  <reference_id>  (47) 
93

>  <inspiration_ids>  (47) 
[93, 127]

>  <energy_score>  (47) 
22.454985184953728

>  <distance_score>  (47) 
10.781240461774825

>  <path>  (47) 
/opt/xchem-fragalysis-2/maxwin/BulkDock/SCRATCH/511023/C30248-P93/C30248-P93.minimised.mol

>  <scratch_subdir>  (47) 
/opt/xchem-fragalysis-2/maxwin/BulkDock/SCRATCH/511023/C30248-P93

>  <fragmenstein_runtime>  (47) 
9.462486982345581

>  <fragmenstein_outcome>  (47) 
too moved

>  <fragmenstein_mode>  (47) 
expansion

>  <fragmenstein_error>  (47) 


$$$$
C30248-P127
     RDKit          3D

 40 42  0  0  0  0  0  0  0  0999 V2000
    3.4844    2.6436   18.0299 C   0  0  0  0  0  0  0  0  0  0  0  0
    3.6189    3.6730   16.9205 C   0  0  0  0  0  0  0  0  0  0  0  0
    4.8005    3.4237   15.9548 C   0  0  0  0  0  0  0  0  0  0  0  0
    6.1845    3.1346   16.3330 N   0  0  0  0  0  0  0  0  0  0  0  0
    6.7391    2.1040   17.1651 C   0  0  0  0  0  0  0  0  0  0  0  0
    6.2047    1.2651   17.8308 O   0  0  0  0  0  0  0  0  0  0  0  0
    8.2570    2.0084   17.0980 C   0  0  0  0  0  0  0  0  0  0  0  0
    9.1350    3.0874   17.0162 C   0  0  0  0  0  0  0  0  0  0  0  0
   10.5050    2.8930   16.7271 C   0  0  0  0  0  0  0  0  0  0  0  0
   10.9614    1.5889   16.4741 C   0  0  0  0  0  0  0  0  0  0  0  0
   12.2160    1.1153   16.1529 N   0  0  0  0  0  0  0  0  0  0  0  0
   12.1671   -0.2342   15.9230 C   0  0  0  0  0  0  0  0  0  0  0  0
   10.8718   -0.6518   16.1245 C   0  0  0  0  0  0  0  0  0  0  0  0
   10.1098    0.4877   16.5077 C   0  0  0  0  0  0  0  0  0  0  0  0
    8.7624    0.7016   16.8630 C   0  0  0  0  0  0  0  0  0  0  0  0
    2.3573    3.7193   16.1369 N   0  0  0  0  0  0  0  0  0  0  0  0
    1.8495    4.7065   15.2295 C   0  0  0  0  0  0  0  0  0  0  0  0
    2.2750    5.7836   14.9307 O   0  0  0  0  0  0  0  0  0  0  0  0
    0.5947    4.2330   14.5364 C   0  0  0  0  0  0  0  0  0  0  0  0
   -0.1407    4.9503   13.5415 C   0  0  0  0  0  0  0  0  0  0  0  0
   -1.1546    4.1203   13.1380 C   0  0  0  0  0  0  0  0  0  0  0  0
   -1.0313    3.0031   13.9013 N   0  0  0  0  0  0  0  0  0  0  0  0
    0.0160    3.0294   14.7533 N   0  0  0  0  0  0  0  0  0  0  0  0
    2.5687    2.8143   18.6073 H   0  0  0  0  0  0  0  0  0  0  0  0
    3.4313    1.6268   17.6270 H   0  0  0  0  0  0  0  0  0  0  0  0
    4.3233    2.7068   18.7279 H   0  0  0  0  0  0  0  0  0  0  0  0
    3.7451    4.6669   17.3652 H   0  0  0  0  0  0  0  0  0  0  0  0
    4.8691    4.2826   15.2749 H   0  0  0  0  0  0  0  0  0  0  0  0
    4.5192    2.5746   15.3183 H   0  0  0  0  0  0  0  0  0  0  0  0
    6.9374    3.6112   15.8518 H   0  0  0  0  0  0  0  0  0  0  0  0
    8.7692    4.0988   17.1780 H   0  0  0  0  0  0  0  0  0  0  0  0
   11.1815    3.7414   16.6778 H   0  0  0  0  0  0  0  0  0  0  0  0
   13.0423    1.6901   16.0602 H   0  0  0  0  0  0  0  0  0  0  0  0
   13.0525   -0.7798   15.6234 H   0  0  0  0  0  0  0  0  0  0  0  0
   10.5120   -1.6651   15.9961 H   0  0  0  0  0  0  0  0  0  0  0  0
    8.0868   -0.1506   16.8711 H   0  0  0  0  0  0  0  0  0  0  0  0
    1.7751    2.8832   16.0768 H   0  0  0  0  0  0  0  0  0  0  0  0
    0.0930    5.9332   13.1543 H   0  0  0  0  0  0  0  0  0  0  0  0
   -1.9101    4.2394   12.3767 H   0  0  0  0  0  0  0  0  0  0  0  0
   -1.6325    2.1880   13.9122 H   0  0  0  0  0  0  0  0  0  0  0  0
  1  2  1  0
  2  3  1  0
  3  4  1  0
  4  5  1  0
  5  6  2  0
  5  7  1  0
  7  8  2  0
  8  9  1  0
  9 10  2  0
 10 11  1  0
 11 12  1  0
 12 13  2  0
 13 14  1  0
 14 15  2  0
  2 16  1  0
 16 17  1  0
 17 18  2  0
 17 19  1  0
 19 20  1  0
 20 21  2  0
 21 22  1  0
 22 23  1  0
 15  7  1  0
 23 19  2  0
 14 10  1  0
  1 24  1  0
  1 25  1  0
  1 26  1  0
  2 27  1  0
  3 28  1  0
  3 29  1  0
  4 30  1  0
  8 31  1  0
  9 32  1  0
 11 33  1  0
 12 34  1  0
 13 35  1  0
 15 36  1  0
 16 37  1  0
 20 38  1  0
 21 39  1  0
 22 40  1  0
M  END
>  <Energy>  (48) 
61.784844735462961

>  <compound_id>  (48) 
30248

>  <target_id>  (48) 
1

>  <reference_id>  (48) 
127

>  <inspiration_ids>  (48) 
[93, 127]

>  <energy_score>  (48) 
-11.514094428921396

>  <distance_score>  (48) 
10.228297105317923

>  <path>  (48) 
/opt/xchem-fragalysis-2/maxwin/BulkDock/SCRATCH/511023/C30248-P127/C30248-P127.minimised.mol

>  <scratch_subdir>  (48) 
/opt/xchem-fragalysis-2/maxwin/BulkDock/SCRATCH/511023/C30248-P127

>  <fragmenstein_runtime>  (48) 
6.460657835006714

>  <fragmenstein_outcome>  (48) 
too moved

>  <fragmenstein_mode>  (48) 
expansion

>  <fragmenstein_error>  (48) 


$$$$
C30249-P93
     RDKit          3D

 41 43  0  0  0  0  0  0  0  0999 V2000
    3.2718    0.4013   18.5006 O   0  0  0  0  0  0  0  0  0  0  0  0
    3.4021    1.3564   17.7876 C   0  0  0  0  0  0  0  0  0  0  0  0
    2.4229    2.0945   17.0018 N   0  0  0  0  0  0  0  0  0  0  0  0
    0.9848    1.8391   16.7594 C   0  0  0  0  0  0  0  0  0  0  0  0
   -0.0430    2.9008   16.1804 C   0  0  0  0  0  0  0  0  0  0  0  0
    0.5731    3.6341   14.9802 C   0  0  0  0  0  0  0  0  0  0  0  0
   -0.3003    4.6400   14.4803 O   0  0  0  0  0  0  0  0  0  0  0  0
   -1.3327    2.1883   15.8412 N   0  0  0  0  0  0  0  0  0  0  0  0
   -2.0214    2.0155   14.5774 C   0  0  0  0  0  0  0  0  0  0  0  0
   -1.7798    2.4671   13.4938 O   0  0  0  0  0  0  0  0  0  0  0  0
   -3.4283    0.8241   14.4880 C   0  0  0  0  0  0  0  0  0  0  0  0
   -3.4685   -0.1438   12.7451 C   0  0  0  0  0  0  0  0  0  0  0  0
   -5.2582   -0.2614   12.1719 C   0  0  0  0  0  0  0  0  0  0  0  0
   -6.0128   -0.2938   13.8271 N   0  0  0  0  0  0  0  0  0  0  0  0
   -5.1462    0.6924   14.9984 N   0  0  0  0  0  0  0  0  0  0  0  0
    4.8657    1.7694   17.6264 C   0  0  0  0  0  0  0  0  0  0  0  0
    5.2876    3.0946   17.6766 C   0  0  0  0  0  0  0  0  0  0  0  0
    6.6512    3.4343   17.5077 C   0  0  0  0  0  0  0  0  0  0  0  0
    7.6122    2.4453   17.2077 C   0  0  0  0  0  0  0  0  0  0  0  0
    8.9942    2.4680   16.8516 C   0  0  0  0  0  0  0  0  0  0  0  0
    9.3402    1.1986   16.4491 C   0  0  0  0  0  0  0  0  0  0  0  0
    8.2358    0.4027   16.6047 N   0  0  0  0  0  0  0  0  0  0  0  0
    7.1901    1.1193   17.1686 C   0  0  0  0  0  0  0  0  0  0  0  0
    5.8453    0.7524   17.4415 C   0  0  0  0  0  0  0  0  0  0  0  0
    2.9024    2.7977   16.4514 H   0  0  0  0  0  0  0  0  0  0  0  0
    0.5822    1.4505   17.7034 H   0  0  0  0  0  0  0  0  0  0  0  0
    0.9904    0.9779   16.0814 H   0  0  0  0  0  0  0  0  0  0  0  0
   -0.3000    3.6210   16.9648 H   0  0  0  0  0  0  0  0  0  0  0  0
    1.4947    4.1406   15.2826 H   0  0  0  0  0  0  0  0  0  0  0  0
    0.8255    2.9453   14.1670 H   0  0  0  0  0  0  0  0  0  0  0  0
   -0.9165    4.1860   13.8670 H   0  0  0  0  0  0  0  0  0  0  0  0
   -1.7641    1.5955   16.5326 H   0  0  0  0  0  0  0  0  0  0  0  0
   -2.4971   -0.4604   12.3908 H   0  0  0  0  0  0  0  0  0  0  0  0
   -6.0746   -0.4997   11.5206 H   0  0  0  0  0  0  0  0  0  0  0  0
   -6.9904   -0.4495   13.9989 H   0  0  0  0  0  0  0  0  0  0  0  0
    4.5711    3.8893   17.8718 H   0  0  0  0  0  0  0  0  0  0  0  0
    6.9488    4.4800   17.5452 H   0  0  0  0  0  0  0  0  0  0  0  0
    9.6315    3.3418   16.7941 H   0  0  0  0  0  0  0  0  0  0  0  0
   10.2469    0.8150   15.9978 H   0  0  0  0  0  0  0  0  0  0  0  0
    8.1231   -0.4953   16.1534 H   0  0  0  0  0  0  0  0  0  0  0  0
    5.5286   -0.2860   17.3776 H   0  0  0  0  0  0  0  0  0  0  0  0
  1  2  2  0
  2  3  1  0
  3  4  1  0
  4  5  1  0
  5  6  1  0
  6  7  1  0
  5  8  1  0
  8  9  1  0
  9 10  2  0
  9 11  1  0
 11 12  1  0
 12 13  2  0
 13 14  1  0
 14 15  1  0
  2 16  1  0
 16 17  2  0
 17 18  1  0
 18 19  2  0
 19 20  1  0
 20 21  2  0
 21 22  1  0
 22 23  1  0
 23 24  2  0
 15 11  2  0
 24 16  1  0
 23 19  1  0
  3 25  1  0
  4 26  1  0
  4 27  1  0
  5 28  1  0
  6 29  1  0
  6 30  1  0
  7 31  1  0
  8 32  1  0
 12 33  1  0
 13 34  1  0
 14 35  1  0
 17 36  1  0
 18 37  1  0
 20 38  1  0
 21 39  1  0
 22 40  1  0
 24 41  1  0
M  END
>  <Energy>  (49) 
475.14938288300476

>  <compound_id>  (49) 
30249

>  <target_id>  (49) 
1

>  <reference_id>  (49) 
93

>  <inspiration_ids>  (49) 
[93, 127]

>  <energy_score>  (49) 
368.1921173955084

>  <distance_score>  (49) 
10.021929058261065

>  <path>  (49) 
/opt/xchem-fragalysis-2/maxwin/BulkDock/SCRATCH/511023/C30249-P93/C30249-P93.minimised.mol

>  <scratch_subdir>  (49) 
/opt/xchem-fragalysis-2/maxwin/BulkDock/SCRATCH/511023/C30249-P93

>  <fragmenstein_runtime>  (49) 
11.208794593811035

>  <fragmenstein_outcome>  (49) 
too moved

>  <fragmenstein_mode>  (49) 
expansion

>  <fragmenstein_error>  (49) 


$$$$
C30249-P127
     RDKit          3D

 41 43  0  0  0  0  0  0  0  0999 V2000
    6.9982    0.1484   18.3243 O   0  0  0  0  0  0  0  0  0  0  0  0
    7.1774    1.0780   17.5910 C   0  0  0  0  0  0  0  0  0  0  0  0
    6.2807    2.1098   17.1488 N   0  0  0  0  0  0  0  0  0  0  0  0
    4.8514    2.2957   17.3752 C   0  0  0  0  0  0  0  0  0  0  0  0
    4.1312    3.6128   16.9744 C   0  0  0  0  0  0  0  0  0  0  0  0
    5.0650    4.7121   16.4457 C   0  0  0  0  0  0  0  0  0  0  0  0
    5.7867    4.2895   15.2940 O   0  0  0  0  0  0  0  0  0  0  0  0
    2.9282    3.3907   16.1342 N   0  0  0  0  0  0  0  0  0  0  0  0
    2.6471    3.7577   14.7767 C   0  0  0  0  0  0  0  0  0  0  0  0
    3.3416    4.2686   13.9468 O   0  0  0  0  0  0  0  0  0  0  0  0
    1.2102    3.4628   14.4214 C   0  0  0  0  0  0  0  0  0  0  0  0
    0.4931    3.9423   13.2815 C   0  0  0  0  0  0  0  0  0  0  0  0
   -0.7792    3.4379   13.3876 C   0  0  0  0  0  0  0  0  0  0  0  0
   -0.7697    2.6651   14.5044 N   0  0  0  0  0  0  0  0  0  0  0  0
    0.3953    2.7021   15.1867 N   0  0  0  0  0  0  0  0  0  0  0  0
    8.5562    1.0809   16.9652 C   0  0  0  0  0  0  0  0  0  0  0  0
    9.3704    2.2076   16.9477 C   0  0  0  0  0  0  0  0  0  0  0  0
   10.7146    2.1061   16.5342 C   0  0  0  0  0  0  0  0  0  0  0  0
   11.2504    0.8633   16.1303 C   0  0  0  0  0  0  0  0  0  0  0  0
   12.5407    0.4127   15.7320 C   0  0  0  0  0  0  0  0  0  0  0  0
   12.4425   -0.9268   15.4286 C   0  0  0  0  0  0  0  0  0  0  0  0
   11.1336   -1.2992   15.5970 N   0  0  0  0  0  0  0  0  0  0  0  0
   10.4013   -0.2388   16.0863 C   0  0  0  0  0  0  0  0  0  0  0  0
    9.0585   -0.1529   16.4832 C   0  0  0  0  0  0  0  0  0  0  0  0
    6.7571    2.6909   16.4570 H   0  0  0  0  0  0  0  0  0  0  0  0
    4.3596    1.4476   16.8990 H   0  0  0  0  0  0  0  0  0  0  0  0
    4.7045    2.1328   18.4507 H   0  0  0  0  0  0  0  0  0  0  0  0
    3.6941    4.0100   17.9006 H   0  0  0  0  0  0  0  0  0  0  0  0
    4.5112    5.6242   16.1977 H   0  0  0  0  0  0  0  0  0  0  0  0
    5.8013    4.9745   17.2129 H   0  0  0  0  0  0  0  0  0  0  0  0
    5.1409    4.3057   14.5519 H   0  0  0  0  0  0  0  0  0  0  0  0
    2.1200    2.8993   16.5190 H   0  0  0  0  0  0  0  0  0  0  0  0
    0.8783    4.5815   12.4977 H   0  0  0  0  0  0  0  0  0  0  0  0
   -1.6408    3.5450   12.7506 H   0  0  0  0  0  0  0  0  0  0  0  0
   -1.5225    2.1017   14.8891 H   0  0  0  0  0  0  0  0  0  0  0  0
    8.9974    3.1626   17.3091 H   0  0  0  0  0  0  0  0  0  0  0  0
   11.3542    2.9847   16.5607 H   0  0  0  0  0  0  0  0  0  0  0  0
   13.4415    1.0085   15.6651 H   0  0  0  0  0  0  0  0  0  0  0  0
   13.1784   -1.6361   15.0728 H   0  0  0  0  0  0  0  0  0  0  0  0
   10.7540   -2.2104   15.3747 H   0  0  0  0  0  0  0  0  0  0  0  0
    8.4049   -1.0164   16.4094 H   0  0  0  0  0  0  0  0  0  0  0  0
  1  2  2  0
  2  3  1  0
  3  4  1  0
  4  5  1  0
  5  6  1  0
  6  7  1  0
  5  8  1  0
  8  9  1  0
  9 10  2  0
  9 11  1  0
 11 12  1  0
 12 13  2  0
 13 14  1  0
 14 15  1  0
  2 16  1  0
 16 17  2  0
 17 18  1  0
 18 19  2  0
 19 20  1  0
 20 21  2  0
 21 22  1  0
 22 23  1  0
 23 24  2  0
 15 11  2  0
 24 16  1  0
 23 19  1  0
  3 25  1  0
  4 26  1  0
  4 27  1  0
  5 28  1  0
  6 29  1  0
  6 30  1  0
  7 31  1  0
  8 32  1  0
 12 33  1  0
 13 34  1  0
 14 35  1  0
 17 36  1  0
 18 37  1  0
 20 38  1  0
 21 39  1  0
 22 40  1  0
 24 41  1  0
M  END
>  <Energy>  (50) 
80.102475285431225

>  <compound_id>  (50) 
30249

>  <target_id>  (50) 
1

>  <reference_id>  (50) 
127

>  <inspiration_ids>  (50) 
[93, 127]

>  <energy_score>  (50) 
-26.854790202064237

>  <distance_score>  (50) 
10.006839297326712

>  <path>  (50) 
/opt/xchem-fragalysis-2/maxwin/BulkDock/SCRATCH/511023/C30249-P127/C30249-P127.minimised.mol

>  <scratch_subdir>  (50) 
/opt/xchem-fragalysis-2/maxwin/BulkDock/SCRATCH/511023/C30249-P127

>  <fragmenstein_runtime>  (50) 
9.098656177520752

>  <fragmenstein_outcome>  (50) 
too moved

>  <fragmenstein_mode>  (50) 
expansion

>  <fragmenstein_error>  (50) 


$$$$
C30250-P93
     RDKit          3D

 43 45  0  0  0  0  0  0  0  0999 V2000
   -0.9454    2.1908   15.6218 C   0  0  0  0  0  0  0  0  0  0  0  0
   -0.7318    2.0430   14.1104 C   0  0  0  0  0  0  0  0  0  0  0  0
    0.8181    2.6575   13.8398 C   0  0  0  0  0  0  0  0  0  0  0  0
    1.3916    3.8511   14.7139 C   0  0  0  0  0  0  0  0  0  0  0  0
    2.4480    3.5732   15.6924 N   0  0  0  0  0  0  0  0  0  0  0  0
    3.4366    4.4546   16.3089 C   0  0  0  0  0  0  0  0  0  0  0  0
    3.5820    5.6422   16.2302 O   0  0  0  0  0  0  0  0  0  0  0  0
    4.4211    3.7505   17.2195 C   0  0  0  0  0  0  0  0  0  0  0  0
    3.9371    3.1145   18.3765 C   0  0  0  0  0  0  0  0  0  0  0  0
    4.7728    2.3277   19.1776 C   0  0  0  0  0  0  0  0  0  0  0  0
    6.1168    2.1385   18.8542 C   0  0  0  0  0  0  0  0  0  0  0  0
    6.6314    2.8653   17.7757 C   0  0  0  0  0  0  0  0  0  0  0  0
    7.9259    2.9442   17.3072 N   0  0  0  0  0  0  0  0  0  0  0  0
    8.0096    3.8681   16.3087 C   0  0  0  0  0  0  0  0  0  0  0  0
    6.7299    4.3132   16.0496 C   0  0  0  0  0  0  0  0  0  0  0  0
    5.8308    3.6988   16.9741 C   0  0  0  0  0  0  0  0  0  0  0  0
   -2.1394    1.6709   13.1293 N   0  0  0  0  0  0  0  0  0  0  0  0
   -2.8971    0.0004   12.5791 C   0  0  0  0  0  0  0  0  0  0  0  0
   -2.3966   -1.0587   12.7994 O   0  0  0  0  0  0  0  0  0  0  0  0
   -4.4483   -0.2426   11.4759 C   0  0  0  0  0  0  0  0  0  0  0  0
   -6.1193   -0.3246   11.8295 C   0  0  0  0  0  0  0  0  0  0  0  0
   -6.8411   -0.3449   10.5524 C   0  0  0  0  0  0  0  0  0  0  0  0
   -5.8613   -0.4134    9.5023 N   0  0  0  0  0  0  0  0  0  0  0  0
   -4.4605   -0.3511    9.9612 N   0  0  0  0  0  0  0  0  0  0  0  0
   -1.9995    2.1421   15.8285 H   0  0  0  0  0  0  0  0  0  0  0  0
   -0.3463    1.4775   16.1943 H   0  0  0  0  0  0  0  0  0  0  0  0
   -0.6578    3.1672   16.0172 H   0  0  0  0  0  0  0  0  0  0  0  0
   -1.0881    3.0770   13.9133 H   0  0  0  0  0  0  0  0  0  0  0  0
    1.5381    1.8358   13.8383 H   0  0  0  0  0  0  0  0  0  0  0  0
    0.7654    3.1304   12.8569 H   0  0  0  0  0  0  0  0  0  0  0  0
    0.6151    4.4475   15.1979 H   0  0  0  0  0  0  0  0  0  0  0  0
    1.8700    4.5495   14.0134 H   0  0  0  0  0  0  0  0  0  0  0  0
    2.6779    2.6095   15.9144 H   0  0  0  0  0  0  0  0  0  0  0  0
    2.8802    3.1941   18.6237 H   0  0  0  0  0  0  0  0  0  0  0  0
    4.3512    1.8198   20.0434 H   0  0  0  0  0  0  0  0  0  0  0  0
    6.7385    1.4977   19.4679 H   0  0  0  0  0  0  0  0  0  0  0  0
    8.7154    2.4645   17.7088 H   0  0  0  0  0  0  0  0  0  0  0  0
    8.9561    4.1189   15.8484 H   0  0  0  0  0  0  0  0  0  0  0  0
    6.4501    5.0318   15.2880 H   0  0  0  0  0  0  0  0  0  0  0  0
   -2.6677    2.4059   12.7746 H   0  0  0  0  0  0  0  0  0  0  0  0
   -6.4510   -0.3585   12.8490 H   0  0  0  0  0  0  0  0  0  0  0  0
   -7.8913   -0.3910   10.2972 H   0  0  0  0  0  0  0  0  0  0  0  0
   -6.0265   -0.4924    8.5037 H   0  0  0  0  0  0  0  0  0  0  0  0
  1  2  1  0
  2  3  1  0
  3  4  1  0
  4  5  1  0
  5  6  1  0
  6  7  2  0
  6  8  1  0
  8  9  2  0
  9 10  1  0
 10 11  2  0
 11 12  1  0
 12 13  1  0
 13 14  1  0
 14 15  2  0
 15 16  1  0
  2 17  1  0
 17 18  1  0
 18 19  2  0
 18 20  1  0
 20 21  1  0
 21 22  2  0
 22 23  1  0
 23 24  1  0
 16  8  1  0
 24 20  2  0
 16 12  2  0
  1 25  1  0
  1 26  1  0
  1 27  1  0
  2 28  1  0
  3 29  1  0
  3 30  1  0
  4 31  1  0
  4 32  1  0
  5 33  1  0
  9 34  1  0
 10 35  1  0
 11 36  1  0
 13 37  1  0
 14 38  1  0
 15 39  1  0
 17 40  1  0
 21 41  1  0
 22 42  1  0
 23 43  1  0
M  END
>  <Energy>  (51) 
349.35011706037551

>  <compound_id>  (51) 
30250

>  <target_id>  (51) 
1

>  <reference_id>  (51) 
93

>  <inspiration_ids>  (51) 
[93, 127]

>  <energy_score>  (51) 
274.48073100094643

>  <distance_score>  (51) 
10.173744255729892

>  <path>  (51) 
/opt/xchem-fragalysis-2/maxwin/BulkDock/SCRATCH/511023/C30250-P93/C30250-P93.minimised.mol

>  <scratch_subdir>  (51) 
/opt/xchem-fragalysis-2/maxwin/BulkDock/SCRATCH/511023/C30250-P93

>  <fragmenstein_runtime>  (51) 
12.851481199264526

>  <fragmenstein_outcome>  (51) 
too moved

>  <fragmenstein_mode>  (51) 
expansion

>  <fragmenstein_error>  (51) 


$$$$
C30250-P127
     RDKit          3D

 43 45  0  0  0  0  0  0  0  0999 V2000
   -0.3730    3.3578   13.1217 C   0  0  0  0  0  0  0  0  0  0  0  0
   -0.7231    1.9997   13.8396 C   0  0  0  0  0  0  0  0  0  0  0  0
   -0.2959    2.4207   15.3495 C   0  0  0  0  0  0  0  0  0  0  0  0
    1.2049    2.0633   15.4818 C   0  0  0  0  0  0  0  0  0  0  0  0
    2.1686    2.4276   16.4942 N   0  0  0  0  0  0  0  0  0  0  0  0
    2.9433    3.6419   16.6790 C   0  0  0  0  0  0  0  0  0  0  0  0
    2.9185    4.6815   16.0865 O   0  0  0  0  0  0  0  0  0  0  0  0
    4.0187    3.4641   17.7555 C   0  0  0  0  0  0  0  0  0  0  0  0
    3.7206    2.8144   18.9652 C   0  0  0  0  0  0  0  0  0  0  0  0
    4.7285    2.2359   19.7418 C   0  0  0  0  0  0  0  0  0  0  0  0
    6.0659    2.2660   19.3400 C   0  0  0  0  0  0  0  0  0  0  0  0
    6.3883    2.9795   18.1791 C   0  0  0  0  0  0  0  0  0  0  0  0
    7.6060    3.1776   17.5546 N   0  0  0  0  0  0  0  0  0  0  0  0
    7.4588    3.9751   16.4599 C   0  0  0  0  0  0  0  0  0  0  0  0
    6.1172    4.2498   16.3315 C   0  0  0  0  0  0  0  0  0  0  0  0
    5.4062    3.6249   17.4065 C   0  0  0  0  0  0  0  0  0  0  0  0
   -2.1302    1.6355   13.0916 N   0  0  0  0  0  0  0  0  0  0  0  0
   -2.9074    0.0252   12.7107 C   0  0  0  0  0  0  0  0  0  0  0  0
   -2.4795   -1.0201   13.0654 O   0  0  0  0  0  0  0  0  0  0  0  0
   -4.4079   -0.2539   11.5609 C   0  0  0  0  0  0  0  0  0  0  0  0
   -4.2486   -0.3439    9.7886 C   0  0  0  0  0  0  0  0  0  0  0  0
   -5.4839   -0.3835    9.1491 C   0  0  0  0  0  0  0  0  0  0  0  0
   -6.4911   -0.2754   10.1253 N   0  0  0  0  0  0  0  0  0  0  0  0
   -5.9456   -0.3857   11.8121 N   0  0  0  0  0  0  0  0  0  0  0  0
   -1.0235    4.1576   13.4988 H   0  0  0  0  0  0  0  0  0  0  0  0
   -0.5361    3.3449   12.0477 H   0  0  0  0  0  0  0  0  0  0  0  0
    0.6649    3.6643   13.2804 H   0  0  0  0  0  0  0  0  0  0  0  0
   -0.0091    1.2225   13.5958 H   0  0  0  0  0  0  0  0  0  0  0  0
   -0.4237    3.4918   15.5362 H   0  0  0  0  0  0  0  0  0  0  0  0
   -0.8678    1.8960   16.1046 H   0  0  0  0  0  0  0  0  0  0  0  0
    1.1989    0.9770   15.5656 H   0  0  0  0  0  0  0  0  0  0  0  0
    1.7217    2.3081   14.5479 H   0  0  0  0  0  0  0  0  0  0  0  0
    2.5143    1.7145   17.1255 H   0  0  0  0  0  0  0  0  0  0  0  0
    2.6816    2.6961   19.2667 H   0  0  0  0  0  0  0  0  0  0  0  0
    4.4571    1.7164   20.6590 H   0  0  0  0  0  0  0  0  0  0  0  0
    6.8126    1.7679   19.9430 H   0  0  0  0  0  0  0  0  0  0  0  0
    8.4983    2.8184   17.8557 H   0  0  0  0  0  0  0  0  0  0  0  0
    8.3050    4.2617   15.8506 H   0  0  0  0  0  0  0  0  0  0  0  0
    5.6624    4.8186   15.5287 H   0  0  0  0  0  0  0  0  0  0  0  0
   -2.6144    2.3534   12.6244 H   0  0  0  0  0  0  0  0  0  0  0  0
   -3.2832   -0.3476    9.2999 H   0  0  0  0  0  0  0  0  0  0  0  0
   -5.7564   -0.3788    8.1030 H   0  0  0  0  0  0  0  0  0  0  0  0
   -7.4163    0.1436   10.0175 H   0  0  0  0  0  0  0  0  0  0  0  0
  1  2  1  0
  2  3  1  0
  3  4  1  0
  4  5  1  0
  5  6  1  0
  6  7  2  0
  6  8  1  0
  8  9  2  0
  9 10  1  0
 10 11  2  0
 11 12  1  0
 12 13  1  0
 13 14  1  0
 14 15  2  0
 15 16  1  0
  2 17  1  0
 17 18  1  0
 18 19  2  0
 18 20  1  0
 20 21  1  0
 21 22  2  0
 22 23  1  0
 23 24  1  0
 16  8  1  0
 24 20  2  0
 16 12  2  0
  1 25  1  0
  1 26  1  0
  1 27  1  0
  2 28  1  0
  3 29  1  0
  3 30  1  0
  4 31  1  0
  4 32  1  0
  5 33  1  0
  9 34  1  0
 10 35  1  0
 11 36  1  0
 13 37  1  0
 14 38  1  0
 15 39  1  0
 17 40  1  0
 21 41  1  0
 22 42  1  0
 23 43  1  0
M  END
>  <Energy>  (52) 
323.47514420587027

>  <compound_id>  (52) 
30250

>  <target_id>  (52) 
1

>  <reference_id>  (52) 
127

>  <inspiration_ids>  (52) 
[93, 127]

>  <energy_score>  (52) 
248.60575814644176

>  <distance_score>  (52) 
10.518267186750249

>  <path>  (52) 
/opt/xchem-fragalysis-2/maxwin/BulkDock/SCRATCH/511023/C30250-P127/C30250-P127.minimised.mol

>  <scratch_subdir>  (52) 
/opt/xchem-fragalysis-2/maxwin/BulkDock/SCRATCH/511023/C30250-P127

>  <fragmenstein_runtime>  (52) 
15.553040266036987

>  <fragmenstein_outcome>  (52) 
too moved

>  <fragmenstein_mode>  (52) 
expansion

>  <fragmenstein_error>  (52) 


$$$$
C30251-P93
     RDKit          3D

 46 48  0  0  0  0  0  0  0  0999 V2000
   -1.0800    2.3111   15.4380 C   0  0  0  0  0  0  0  0  0  0  0  0
   -0.6087    1.9973   14.0327 C   0  0  0  0  0  0  0  0  0  0  0  0
    0.4421    3.3177   13.7236 C   0  0  0  0  0  0  0  0  0  0  0  0
    1.1842    3.9111   15.0122 C   0  0  0  0  0  0  0  0  0  0  0  0
    2.5869    4.3620   15.0378 N   0  0  0  0  0  0  0  0  0  0  0  0
    3.4966    4.6062   16.1662 C   0  0  0  0  0  0  0  0  0  0  0  0
    3.2994    4.5754   17.3486 O   0  0  0  0  0  0  0  0  0  0  0  0
    4.9687    4.8397   15.8313 C   0  0  0  0  0  0  0  0  0  0  0  0
    5.3717    5.7074   14.8110 C   0  0  0  0  0  0  0  0  0  0  0  0
    6.7232    5.8356   14.4696 C   0  0  0  0  0  0  0  0  0  0  0  0
    7.7247    5.1000   15.1105 C   0  0  0  0  0  0  0  0  0  0  0  0
    7.3343    4.1924   16.1007 C   0  0  0  0  0  0  0  0  0  0  0  0
    5.9913    4.0638   16.4950 C   0  0  0  0  0  0  0  0  0  0  0  0
    5.9873    3.0385   17.4929 C   0  0  0  0  0  0  0  0  0  0  0  0
    7.2546    2.5139   17.5895 C   0  0  0  0  0  0  0  0  0  0  0  0
    8.0778    3.2540   16.7933 N   0  0  0  0  0  0  0  0  0  0  0  0
    9.4970    3.0315   16.6261 C   0  0  0  0  0  0  0  0  0  0  0  0
   -2.0665    1.6541   13.0949 N   0  0  0  0  0  0  0  0  0  0  0  0
   -2.8601   -0.0067   12.5598 C   0  0  0  0  0  0  0  0  0  0  0  0
   -2.3515   -1.0658   12.7617 O   0  0  0  0  0  0  0  0  0  0  0  0
   -4.4470   -0.2484   11.5000 C   0  0  0  0  0  0  0  0  0  0  0  0
   -4.5567   -0.3846    9.7382 C   0  0  0  0  0  0  0  0  0  0  0  0
   -5.9256   -0.4171    9.3653 C   0  0  0  0  0  0  0  0  0  0  0  0
   -6.7198   -0.3562   10.5660 N   0  0  0  0  0  0  0  0  0  0  0  0
   -5.8700   -0.3695   11.9087 N   0  0  0  0  0  0  0  0  0  0  0  0
   -2.1258    2.0730   15.5139 H   0  0  0  0  0  0  0  0  0  0  0  0
   -0.4935    1.7725   16.1887 H   0  0  0  0  0  0  0  0  0  0  0  0
   -1.0062    3.3659   15.6923 H   0  0  0  0  0  0  0  0  0  0  0  0
    0.1386    1.2199   14.0059 H   0  0  0  0  0  0  0  0  0  0  0  0
    1.2263    3.0137   13.0328 H   0  0  0  0  0  0  0  0  0  0  0  0
   -0.1497    4.1052   13.2442 H   0  0  0  0  0  0  0  0  0  0  0  0
    0.6059    4.7661   15.3813 H   0  0  0  0  0  0  0  0  0  0  0  0
    1.1838    3.1551   15.8025 H   0  0  0  0  0  0  0  0  0  0  0  0
    3.0728    4.5566   14.1718 H   0  0  0  0  0  0  0  0  0  0  0  0
    4.6362    6.3157   14.2892 H   0  0  0  0  0  0  0  0  0  0  0  0
    7.0062    6.5350   13.6834 H   0  0  0  0  0  0  0  0  0  0  0  0
    8.7626    5.2090   14.8103 H   0  0  0  0  0  0  0  0  0  0  0  0
    5.1184    2.6772   18.0309 H   0  0  0  0  0  0  0  0  0  0  0  0
    7.6106    1.6864   18.1778 H   0  0  0  0  0  0  0  0  0  0  0  0
   10.0307    3.8319   17.1437 H   0  0  0  0  0  0  0  0  0  0  0  0
    9.7623    2.0615   17.0506 H   0  0  0  0  0  0  0  0  0  0  0  0
    9.7359    3.0310   15.5598 H   0  0  0  0  0  0  0  0  0  0  0  0
   -2.6046    2.3987   12.7623 H   0  0  0  0  0  0  0  0  0  0  0  0
   -3.6770   -0.3476    9.1042 H   0  0  0  0  0  0  0  0  0  0  0  0
   -6.4275   -0.4596    8.4096 H   0  0  0  0  0  0  0  0  0  0  0  0
   -7.7312   -0.3556   10.6451 H   0  0  0  0  0  0  0  0  0  0  0  0
  1  2  1  0
  2  3  1  0
  3  4  1  0
  4  5  1  0
  5  6  1  0
  6  7  2  0
  6  8  1  0
  8  9  2  0
  9 10  1  0
 10 11  2  0
 11 12  1  0
 12 13  2  0
 13 14  1  0
 14 15  2  0
 15 16  1  0
 16 17  1  0
  2 18  1  0
 18 19  1  0
 19 20  2  0
 19 21  1  0
 21 22  1  0
 22 23  2  0
 23 24  1  0
 24 25  1  0
 13  8  1  0
 25 21  2  0
 16 12  1  0
  1 26  1  0
  1 27  1  0
  1 28  1  0
  2 29  1  0
  3 30  1  0
  3 31  1  0
  4 32  1  0
  4 33  1  0
  5 34  1  0
  9 35  1  0
 10 36  1  0
 11 37  1  0
 14 38  1  0
 15 39  1  0
 17 40  1  0
 17 41  1  0
 17 42  1  0
 18 43  1  0
 22 44  1  0
 23 45  1  0
 24 46  1  0
M  END
>  <Energy>  (53) 
336.18420440697832

>  <compound_id>  (53) 
30251

>  <target_id>  (53) 
1

>  <reference_id>  (53) 
93

>  <inspiration_ids>  (53) 
[93, 127]

>  <energy_score>  (53) 
256.0827768568438

>  <distance_score>  (53) 
10.359033390320045

>  <path>  (53) 
/opt/xchem-fragalysis-2/maxwin/BulkDock/SCRATCH/511023/C30251-P93/C30251-P93.minimised.mol

>  <scratch_subdir>  (53) 
/opt/xchem-fragalysis-2/maxwin/BulkDock/SCRATCH/511023/C30251-P93

>  <fragmenstein_runtime>  (53) 
11.147362232208252

>  <fragmenstein_outcome>  (53) 
too moved

>  <fragmenstein_mode>  (53) 
expansion

>  <fragmenstein_error>  (53) 


$$$$
C30251-P127
     RDKit          3D

 46 48  0  0  0  0  0  0  0  0999 V2000
   -1.2619    4.0676   13.6818 C   0  0  0  0  0  0  0  0  0  0  0  0
   -1.0113    2.5448   13.5727 C   0  0  0  0  0  0  0  0  0  0  0  0
    0.3429    2.1815   14.3940 C   0  0  0  0  0  0  0  0  0  0  0  0
    0.4066    2.4222   15.9342 C   0  0  0  0  0  0  0  0  0  0  0  0
    1.6952    2.0260   16.5709 N   0  0  0  0  0  0  0  0  0  0  0  0
    2.4588    2.6444   17.6531 C   0  0  0  0  0  0  0  0  0  0  0  0
    2.2809    3.6695   18.2472 O   0  0  0  0  0  0  0  0  0  0  0  0
    3.7182    1.8668   18.0594 C   0  0  0  0  0  0  0  0  0  0  0  0
    3.6800    0.4717   18.2249 C   0  0  0  0  0  0  0  0  0  0  0  0
    4.8526   -0.2808   18.3486 C   0  0  0  0  0  0  0  0  0  0  0  0
    6.1104    0.3114   18.2246 C   0  0  0  0  0  0  0  0  0  0  0  0
    6.1733    1.6988   18.0684 C   0  0  0  0  0  0  0  0  0  0  0  0
    5.0101    2.5015   18.1100 C   0  0  0  0  0  0  0  0  0  0  0  0
    5.4735    3.8463   18.0017 C   0  0  0  0  0  0  0  0  0  0  0  0
    6.8346    3.8301   17.7973 C   0  0  0  0  0  0  0  0  0  0  0  0
    7.2277    2.5237   17.7164 N   0  0  0  0  0  0  0  0  0  0  0  0
    8.5045    2.1330   17.1547 C   0  0  0  0  0  0  0  0  0  0  0  0
   -2.3402    1.6326   13.3558 N   0  0  0  0  0  0  0  0  0  0  0  0
   -3.5030    0.8319   14.5408 C   0  0  0  0  0  0  0  0  0  0  0  0
   -3.1301    0.9688   15.5580 O   0  0  0  0  0  0  0  0  0  0  0  0
   -5.3990   -0.0901   14.6189 C   0  0  0  0  0  0  0  0  0  0  0  0
   -6.7512    0.1189   14.1291 C   0  0  0  0  0  0  0  0  0  0  0  0
   -7.6315   -0.8770   14.6365 C   0  0  0  0  0  0  0  0  0  0  0  0
   -6.8410   -1.8440   14.9891 N   0  0  0  0  0  0  0  0  0  0  0  0
   -5.6431   -1.4656   14.6962 N   0  0  0  0  0  0  0  0  0  0  0  0
   -0.3379    4.6066   13.4306 H   0  0  0  0  0  0  0  0  0  0  0  0
   -2.0008    4.4094   12.9523 H   0  0  0  0  0  0  0  0  0  0  0  0
   -1.5287    4.4222   14.6677 H   0  0  0  0  0  0  0  0  0  0  0  0
   -0.6829    2.6181   12.5482 H   0  0  0  0  0  0  0  0  0  0  0  0
    0.7082    1.1907   14.1203 H   0  0  0  0  0  0  0  0  0  0  0  0
    1.1215    2.8387   13.9758 H   0  0  0  0  0  0  0  0  0  0  0  0
   -0.3684    1.8471   16.4403 H   0  0  0  0  0  0  0  0  0  0  0  0
    0.2442    3.4793   16.1660 H   0  0  0  0  0  0  0  0  0  0  0  0
    2.1819    1.1996   16.2528 H   0  0  0  0  0  0  0  0  0  0  0  0
    2.7191   -0.0401   18.2421 H   0  0  0  0  0  0  0  0  0  0  0  0
    4.7735   -1.3572   18.4850 H   0  0  0  0  0  0  0  0  0  0  0  0
    7.0082   -0.2851   18.2187 H   0  0  0  0  0  0  0  0  0  0  0  0
    4.8512    4.7343   18.0096 H   0  0  0  0  0  0  0  0  0  0  0  0
    7.5293    4.6424   17.6221 H   0  0  0  0  0  0  0  0  0  0  0  0
    8.4544    2.2889   16.0787 H   0  0  0  0  0  0  0  0  0  0  0  0
    9.2878    2.7792   17.5550 H   0  0  0  0  0  0  0  0  0  0  0  0
    8.7162    1.0871   17.3767 H   0  0  0  0  0  0  0  0  0  0  0  0
   -2.6447    1.4260   12.4598 H   0  0  0  0  0  0  0  0  0  0  0  0
   -7.0054    1.0300   13.6245 H   0  0  0  0  0  0  0  0  0  0  0  0
   -8.6813   -1.1065   14.7076 H   0  0  0  0  0  0  0  0  0  0  0  0
   -7.0187   -2.7904   15.3115 H   0  0  0  0  0  0  0  0  0  0  0  0
  1  2  1  0
  2  3  1  0
  3  4  1  0
  4  5  1  0
  5  6  1  0
  6  7  2  0
  6  8  1  0
  8  9  2  0
  9 10  1  0
 10 11  2  0
 11 12  1  0
 12 13  2  0
 13 14  1  0
 14 15  2  0
 15 16  1  0
 16 17  1  0
  2 18  1  0
 18 19  1  0
 19 20  2  0
 19 21  1  0
 21 22  1  0
 22 23  2  0
 23 24  1  0
 24 25  1  0
 13  8  1  0
 25 21  2  0
 16 12  1  0
  1 26  1  0
  1 27  1  0
  1 28  1  0
  2 29  1  0
  3 30  1  0
  3 31  1  0
  4 32  1  0
  4 33  1  0
  5 34  1  0
  9 35  1  0
 10 36  1  0
 11 37  1  0
 14 38  1  0
 15 39  1  0
 17 40  1  0
 17 41  1  0
 17 42  1  0
 18 43  1  0
 22 44  1  0
 23 45  1  0
 24 46  1  0
M  END
>  <Energy>  (54) 
394.59846471613747

>  <compound_id>  (54) 
30251

>  <target_id>  (54) 
1

>  <reference_id>  (54) 
127

>  <inspiration_ids>  (54) 
[93, 127]

>  <energy_score>  (54) 
314.49703716599487

>  <distance_score>  (54) 
10.343935295835589

>  <path>  (54) 
/opt/xchem-fragalysis-2/maxwin/BulkDock/SCRATCH/511023/C30251-P127/C30251-P127.minimised.mol

>  <scratch_subdir>  (54) 
/opt/xchem-fragalysis-2/maxwin/BulkDock/SCRATCH/511023/C30251-P127

>  <fragmenstein_runtime>  (54) 
11.83903694152832

>  <fragmenstein_outcome>  (54) 
too moved

>  <fragmenstein_mode>  (54) 
expansion

>  <fragmenstein_error>  (54) 


$$$$
C30252-P93
     RDKit          3D

 50 52  0  0  0  0  0  0  0  0999 V2000
    5.7880    0.0697   17.1253 C   0  0  0  0  0  0  0  0  0  0  0  0
    7.2319    0.5401   17.2337 C   0  0  0  0  0  0  0  0  0  0  0  0
    7.2317    2.0444   17.5698 C   0  0  0  0  0  0  0  0  0  0  0  0
    8.2556    0.2765   16.0827 C   0  0  0  0  0  0  0  0  0  0  0  0
    8.3057   -0.8906   14.9783 C   0  0  0  0  0  0  0  0  0  0  0  0
    9.6733   -1.6707   15.1084 C   0  0  0  0  0  0  0  0  0  0  0  0
   10.8559   -0.9102   14.6022 N   0  0  0  0  0  0  0  0  0  0  0  0
   11.9891   -1.8028   14.3115 C   0  0  0  0  0  0  0  0  0  0  0  0
   12.9208   -1.9897   15.4766 C   0  0  0  0  0  0  0  0  0  0  0  0
   14.0258   -1.1431   15.6182 C   0  0  0  0  0  0  0  0  0  0  0  0
   14.9424   -1.3190   16.6582 C   0  0  0  0  0  0  0  0  0  0  0  0
   14.7257   -2.3386   17.5996 C   0  0  0  0  0  0  0  0  0  0  0  0
   15.4211   -2.7743   18.7590 C   0  0  0  0  0  0  0  0  0  0  0  0
   14.6857   -3.7870   19.3309 C   0  0  0  0  0  0  0  0  0  0  0  0
   13.5715   -3.9816   18.5592 N   0  0  0  0  0  0  0  0  0  0  0  0
   13.6001   -3.1473   17.4655 C   0  0  0  0  0  0  0  0  0  0  0  0
   12.6982   -3.0174   16.4051 C   0  0  0  0  0  0  0  0  0  0  0  0
    7.0992   -1.3930   14.1599 N   0  0  0  0  0  0  0  0  0  0  0  0
    6.7291   -1.1604   12.7330 C   0  0  0  0  0  0  0  0  0  0  0  0
    7.3191   -0.6014   11.8706 O   0  0  0  0  0  0  0  0  0  0  0  0
    5.3580   -1.5673   12.2319 C   0  0  0  0  0  0  0  0  0  0  0  0
    4.6487   -0.7625   11.2418 C   0  0  0  0  0  0  0  0  0  0  0  0
    3.5886   -1.5076   10.7965 C   0  0  0  0  0  0  0  0  0  0  0  0
    3.7102   -2.6785   11.4727 N   0  0  0  0  0  0  0  0  0  0  0  0
    4.6189   -2.6546   12.4621 N   0  0  0  0  0  0  0  0  0  0  0  0
    5.0995    0.8950   16.9147 H   0  0  0  0  0  0  0  0  0  0  0  0
    5.6604   -0.6805   16.3537 H   0  0  0  0  0  0  0  0  0  0  0  0
    5.4581   -0.3662   18.0753 H   0  0  0  0  0  0  0  0  0  0  0  0
    7.6244    0.0523   18.1248 H   0  0  0  0  0  0  0  0  0  0  0  0
    6.7614    2.6345   16.7761 H   0  0  0  0  0  0  0  0  0  0  0  0
    6.6798    2.2324   18.4969 H   0  0  0  0  0  0  0  0  0  0  0  0
    8.2518    2.4190   17.6947 H   0  0  0  0  0  0  0  0  0  0  0  0
    8.3792    1.2217   15.5380 H   0  0  0  0  0  0  0  0  0  0  0  0
    9.2261    0.2539   16.5981 H   0  0  0  0  0  0  0  0  0  0  0  0
    8.6234   -0.2276   14.1603 H   0  0  0  0  0  0  0  0  0  0  0  0
    9.9060   -1.7913   16.1490 H   0  0  0  0  0  0  0  0  0  0  0  0
    9.5810   -2.6719   14.6871 H   0  0  0  0  0  0  0  0  0  0  0  0
   10.5364   -0.6236   13.6623 H   0  0  0  0  0  0  0  0  0  0  0  0
   12.5624   -1.3561   13.4884 H   0  0  0  0  0  0  0  0  0  0  0  0
   11.6674   -2.7782   13.9241 H   0  0  0  0  0  0  0  0  0  0  0  0
   14.1917   -0.3408   14.9020 H   0  0  0  0  0  0  0  0  0  0  0  0
   15.8038   -0.6636   16.7436 H   0  0  0  0  0  0  0  0  0  0  0  0
   16.3419   -2.3643   19.1522 H   0  0  0  0  0  0  0  0  0  0  0  0
   14.8381   -4.3535   20.2397 H   0  0  0  0  0  0  0  0  0  0  0  0
   12.7912   -4.5812   18.7946 H   0  0  0  0  0  0  0  0  0  0  0  0
   11.8500   -3.6866   16.3058 H   0  0  0  0  0  0  0  0  0  0  0  0
    6.3272   -1.8334   14.6342 H   0  0  0  0  0  0  0  0  0  0  0  0
    4.9837    0.1960   10.8653 H   0  0  0  0  0  0  0  0  0  0  0  0
    2.8439   -1.3462   10.0297 H   0  0  0  0  0  0  0  0  0  0  0  0
    3.1793   -3.5327   11.3456 H   0  0  0  0  0  0  0  0  0  0  0  0
  1  2  1  0
  2  3  1  0
  2  4  1  0
  4  5  1  0
  5  6  1  0
  6  7  1  0
  7  8  1  0
  8  9  1  0
  9 10  2  0
 10 11  1  0
 11 12  2  0
 12 13  1  0
 13 14  2  0
 14 15  1  0
 15 16  1  0
 16 17  2  0
  5 18  1  0
 18 19  1  0
 19 20  2  0
 19 21  1  0
 21 22  1  0
 22 23  2  0
 23 24  1  0
 24 25  1  0
 17  9  1  0
 25 21  2  0
 16 12  1  0
  1 26  1  0
  1 27  1  0
  1 28  1  0
  2 29  1  0
  3 30  1  0
  3 31  1  0
  3 32  1  0
  4 33  1  0
  4 34  1  0
  5 35  1  0
  6 36  1  0
  6 37  1  0
  7 38  1  0
  8 39  1  0
  8 40  1  0
 10 41  1  0
 11 42  1  0
 13 43  1  0
 14 44  1  0
 15 45  1  0
 17 46  1  0
 18 47  1  0
 22 48  1  0
 23 49  1  0
 24 50  1  0
M  END
>  <Energy>  (55) 
140.06947448905387

>  <compound_id>  (55) 
30252

>  <target_id>  (55) 
1

>  <reference_id>  (55) 
93

>  <inspiration_ids>  (55) 
[93, 127]

>  <energy_score>  (55) 
33.638671110490066

>  <distance_score>  (55) 
10.867668631974722

>  <path>  (55) 
/opt/xchem-fragalysis-2/maxwin/BulkDock/SCRATCH/511023/C30252-P93/C30252-P93.minimised.mol

>  <scratch_subdir>  (55) 
/opt/xchem-fragalysis-2/maxwin/BulkDock/SCRATCH/511023/C30252-P93

>  <fragmenstein_runtime>  (55) 
9.577146053314209

>  <fragmenstein_outcome>  (55) 
too moved

>  <fragmenstein_mode>  (55) 
expansion

>  <fragmenstein_error>  (55) 


$$$$
C30252-P127
     RDKit          3D

 50 52  0  0  0  0  0  0  0  0999 V2000
    0.6653    1.6678   17.8465 C   0  0  0  0  0  0  0  0  0  0  0  0
    0.3339    2.7412   16.8079 C   0  0  0  0  0  0  0  0  0  0  0  0
   -0.1209    4.0164   17.5267 C   0  0  0  0  0  0  0  0  0  0  0  0
    1.5242    3.0774   15.8841 C   0  0  0  0  0  0  0  0  0  0  0  0
    2.1223    1.8881   15.0636 C   0  0  0  0  0  0  0  0  0  0  0  0
    3.6415    2.3706   14.6768 C   0  0  0  0  0  0  0  0  0  0  0  0
    4.6727    2.2048   15.8068 N   0  0  0  0  0  0  0  0  0  0  0  0
    5.6096    3.3233   16.1290 C   0  0  0  0  0  0  0  0  0  0  0  0
    7.0653    2.9609   16.5678 C   0  0  0  0  0  0  0  0  0  0  0  0
    8.0926    3.8767   16.2672 C   0  0  0  0  0  0  0  0  0  0  0  0
    9.4564    3.5195   16.2938 C   0  0  0  0  0  0  0  0  0  0  0  0
    9.7924    2.1708   16.4834 C   0  0  0  0  0  0  0  0  0  0  0  0
   10.9847    1.4079   16.3230 C   0  0  0  0  0  0  0  0  0  0  0  0
   10.6319    0.0798   16.4024 C   0  0  0  0  0  0  0  0  0  0  0  0
    9.2909    0.0269   16.6842 N   0  0  0  0  0  0  0  0  0  0  0  0
    8.7749    1.2974   16.8556 C   0  0  0  0  0  0  0  0  0  0  0  0
    7.4475    1.7209   17.1183 C   0  0  0  0  0  0  0  0  0  0  0  0
    0.9806    1.3572   14.1438 N   0  0  0  0  0  0  0  0  0  0  0  0
    0.9422    0.1496   13.1607 C   0  0  0  0  0  0  0  0  0  0  0  0
    1.8132   -0.6070   12.8199 O   0  0  0  0  0  0  0  0  0  0  0  0
   -0.6538   -0.1767   12.5191 C   0  0  0  0  0  0  0  0  0  0  0  0
   -1.5879    0.9594   12.6445 C   0  0  0  0  0  0  0  0  0  0  0  0
   -2.3716   -0.0763   12.3556 C   0  0  0  0  0  0  0  0  0  0  0  0
   -2.5321   -0.1578   10.3196 N   0  0  0  0  0  0  0  0  0  0  0  0
   -0.8854   -0.7330   11.2493 N   0  0  0  0  0  0  0  0  0  0  0  0
    0.8114    0.6897   17.3786 H   0  0  0  0  0  0  0  0  0  0  0  0
   -0.1534    1.5561   18.5657 H   0  0  0  0  0  0  0  0  0  0  0  0
    1.5727    1.9215   18.4047 H   0  0  0  0  0  0  0  0  0  0  0  0
   -0.5032    2.3828   16.2006 H   0  0  0  0  0  0  0  0  0  0  0  0
   -0.3943    4.7942   16.8059 H   0  0  0  0  0  0  0  0  0  0  0  0
    0.6712    4.4145   18.1703 H   0  0  0  0  0  0  0  0  0  0  0  0
   -0.9969    3.8192   18.1537 H   0  0  0  0  0  0  0  0  0  0  0  0
    1.2131    3.8580   15.1767 H   0  0  0  0  0  0  0  0  0  0  0  0
    2.3107    3.5225   16.5075 H   0  0  0  0  0  0  0  0  0  0  0  0
    2.2248    1.0924   15.7976 H   0  0  0  0  0  0  0  0  0  0  0  0
    3.9684    1.8001   13.8044 H   0  0  0  0  0  0  0  0  0  0  0  0
    3.6014    3.4226   14.3707 H   0  0  0  0  0  0  0  0  0  0  0  0
    4.1943    1.9395   16.6663 H   0  0  0  0  0  0  0  0  0  0  0  0
    5.6887    3.9622   15.2411 H   0  0  0  0  0  0  0  0  0  0  0  0
    5.1642    3.9330   16.9238 H   0  0  0  0  0  0  0  0  0  0  0  0
    7.8357    4.8778   15.9225 H   0  0  0  0  0  0  0  0  0  0  0  0
   10.2125    4.2431   16.0040 H   0  0  0  0  0  0  0  0  0  0  0  0
   11.9619    1.7851   16.0511 H   0  0  0  0  0  0  0  0  0  0  0  0
   11.2031   -0.8219   16.2239 H   0  0  0  0  0  0  0  0  0  0  0  0
    8.7127   -0.7942   16.5816 H   0  0  0  0  0  0  0  0  0  0  0  0
    6.6910    1.0051   17.4309 H   0  0  0  0  0  0  0  0  0  0  0  0
    0.0906    1.8233   14.1358 H   0  0  0  0  0  0  0  0  0  0  0  0
   -1.6221    1.8182   13.3091 H   0  0  0  0  0  0  0  0  0  0  0  0
   -3.3807   -0.3066   12.5919 H   0  0  0  0  0  0  0  0  0  0  0  0
   -3.0376   -0.9449    9.9421 H   0  0  0  0  0  0  0  0  0  0  0  0
  1  2  1  0
  2  3  1  0
  2  4  1  0
  4  5  1  0
  5  6  1  0
  6  7  1  0
  7  8  1  0
  8  9  1  0
  9 10  2  0
 10 11  1  0
 11 12  2  0
 12 13  1  0
 13 14  2  0
 14 15  1  0
 15 16  1  0
 16 17  2  0
  5 18  1  0
 18 19  1  0
 19 20  2  0
 19 21  1  0
 21 22  1  0
 22 23  2  0
 23 24  1  0
 24 25  1  0
 17  9  1  0
 25 21  2  0
 16 12  1  0
  1 26  1  0
  1 27  1  0
  1 28  1  0
  2 29  1  0
  3 30  1  0
  3 31  1  0
  3 32  1  0
  4 33  1  0
  4 34  1  0
  5 35  1  0
  6 36  1  0
  6 37  1  0
  7 38  1  0
  8 39  1  0
  8 40  1  0
 10 41  1  0
 11 42  1  0
 13 43  1  0
 14 44  1  0
 15 45  1  0
 17 46  1  0
 18 47  1  0
 22 48  1  0
 23 49  1  0
 24 50  1  0
M  END
>  <Energy>  (56) 
479.22302119693927

>  <compound_id>  (56) 
30252

>  <target_id>  (56) 
1

>  <reference_id>  (56) 
127

>  <inspiration_ids>  (56) 
[93, 127]

>  <energy_score>  (56) 
372.79221781837214

>  <distance_score>  (56) 
9.784659259667423

>  <path>  (56) 
/opt/xchem-fragalysis-2/maxwin/BulkDock/SCRATCH/511023/C30252-P127/C30252-P127.minimised.mol

>  <scratch_subdir>  (56) 
/opt/xchem-fragalysis-2/maxwin/BulkDock/SCRATCH/511023/C30252-P127

>  <fragmenstein_runtime>  (56) 
9.923951864242554

>  <fragmenstein_outcome>  (56) 
too moved

>  <fragmenstein_mode>  (56) 
expansion

>  <fragmenstein_error>  (56) 


$$$$
C30253-P93
     RDKit          3D

 43 45  0  0  0  0  0  0  0  0999 V2000
    4.5637   -4.9541   11.2113 C   0  0  0  0  0  0  0  0  0  0  0  0
    4.9931   -3.5878   11.7502 C   0  0  0  0  0  0  0  0  0  0  0  0
    5.9008   -2.8769   13.3606 C   0  0  0  0  0  0  0  0  0  0  0  0
    6.7711   -1.6931   13.5201 C   0  0  0  0  0  0  0  0  0  0  0  0
    8.0803   -1.7786   14.1456 N   0  0  0  0  0  0  0  0  0  0  0  0
    8.6939   -0.9779   15.1638 C   0  0  0  0  0  0  0  0  0  0  0  0
    8.2545   -0.0796   15.8229 O   0  0  0  0  0  0  0  0  0  0  0  0
   10.1883   -1.2786   15.3437 C   0  0  0  0  0  0  0  0  0  0  0  0
   10.7752   -2.5536   15.2348 C   0  0  0  0  0  0  0  0  0  0  0  0
   12.1231   -2.7900   15.5034 C   0  0  0  0  0  0  0  0  0  0  0  0
   12.9820   -1.7411   15.8054 C   0  0  0  0  0  0  0  0  0  0  0  0
   12.4667   -0.4373   15.8323 C   0  0  0  0  0  0  0  0  0  0  0  0
   13.0593    0.8319   16.0625 C   0  0  0  0  0  0  0  0  0  0  0  0
   12.0623    1.7734   15.9725 C   0  0  0  0  0  0  0  0  0  0  0  0
   10.8862    1.1237   15.7075 N   0  0  0  0  0  0  0  0  0  0  0  0
   11.0975   -0.2353   15.6149 C   0  0  0  0  0  0  0  0  0  0  0  0
    3.8259   -2.9340   12.0808 N   0  0  0  0  0  0  0  0  0  0  0  0
    2.7041   -3.2801   13.2004 C   0  0  0  0  0  0  0  0  0  0  0  0
    2.5936   -4.2434   13.9251 O   0  0  0  0  0  0  0  0  0  0  0  0
    1.5421   -1.8475   13.4334 C   0  0  0  0  0  0  0  0  0  0  0  0
    1.7257   -0.3458   12.7902 C   0  0  0  0  0  0  0  0  0  0  0  0
    1.0439    0.4163   13.6835 C   0  0  0  0  0  0  0  0  0  0  0  0
    0.2446   -0.5380   13.1785 N   0  0  0  0  0  0  0  0  0  0  0  0
    0.4144   -1.6817   14.0012 N   0  0  0  0  0  0  0  0  0  0  0  0
    3.8589   -5.4928   11.8499 H   0  0  0  0  0  0  0  0  0  0  0  0
    3.9961   -4.7846   10.2840 H   0  0  0  0  0  0  0  0  0  0  0  0
    5.3629   -5.6261   10.9146 H   0  0  0  0  0  0  0  0  0  0  0  0
    5.4788   -3.0182   10.9450 H   0  0  0  0  0  0  0  0  0  0  0  0
    6.5905   -3.4174   13.9291 H   0  0  0  0  0  0  0  0  0  0  0  0
    5.2060   -2.9149   14.2438 H   0  0  0  0  0  0  0  0  0  0  0  0
    6.7730   -1.0233   12.6596 H   0  0  0  0  0  0  0  0  0  0  0  0
    6.2555   -1.4028   14.4004 H   0  0  0  0  0  0  0  0  0  0  0  0
    8.7752   -2.3881   13.7450 H   0  0  0  0  0  0  0  0  0  0  0  0
   10.1761   -3.4176   14.9761 H   0  0  0  0  0  0  0  0  0  0  0  0
   12.5098   -3.8037   15.4845 H   0  0  0  0  0  0  0  0  0  0  0  0
   14.0349   -1.9279   15.9968 H   0  0  0  0  0  0  0  0  0  0  0  0
   14.1022    1.0340   16.2698 H   0  0  0  0  0  0  0  0  0  0  0  0
   12.0854    2.8495   16.0851 H   0  0  0  0  0  0  0  0  0  0  0  0
    9.9760    1.5584   15.6069 H   0  0  0  0  0  0  0  0  0  0  0  0
    3.5716   -2.0831   11.5909 H   0  0  0  0  0  0  0  0  0  0  0  0
    2.5028    0.0174   12.1225 H   0  0  0  0  0  0  0  0  0  0  0  0
    0.9414    1.4691   13.9461 H   0  0  0  0  0  0  0  0  0  0  0  0
   -0.5800   -0.4332   12.5738 H   0  0  0  0  0  0  0  0  0  0  0  0
  1  2  1  0
  2  3  1  0
  3  4  1  0
  4  5  1  0
  5  6  1  0
  6  7  2  0
  6  8  1  0
  8  9  2  0
  9 10  1  0
 10 11  2  0
 11 12  1  0
 12 13  1  0
 13 14  2  0
 14 15  1  0
 15 16  1  0
  2 17  1  0
 17 18  1  0
 18 19  2  0
 18 20  1  0
 20 21  1  0
 21 22  2  0
 22 23  1  0
 23 24  1  0
 16  8  1  0
 24 20  2  0
 16 12  2  0
  1 25  1  0
  1 26  1  0
  1 27  1  0
  2 28  1  0
  3 29  1  0
  3 30  1  0
  4 31  1  0
  4 32  1  0
  5 33  1  0
  9 34  1  0
 10 35  1  0
 11 36  1  0
 13 37  1  0
 14 38  1  0
 15 39  1  0
 17 40  1  0
 21 41  1  0
 22 42  1  0
 23 43  1  0
M  END
>  <Energy>  (57) 
329.11824394148147

>  <compound_id>  (57) 
30253

>  <target_id>  (57) 
1

>  <reference_id>  (57) 
93

>  <inspiration_ids>  (57) 
[93, 127]

>  <energy_score>  (57) 
261.19143756347466

>  <distance_score>  (57) 
9.91476751001067

>  <path>  (57) 
/opt/xchem-fragalysis-2/maxwin/BulkDock/SCRATCH/511023/C30253-P93/C30253-P93.minimised.mol

>  <scratch_subdir>  (57) 
/opt/xchem-fragalysis-2/maxwin/BulkDock/SCRATCH/511023/C30253-P93

>  <fragmenstein_runtime>  (57) 
9.22691297531128

>  <fragmenstein_outcome>  (57) 
too moved

>  <fragmenstein_mode>  (57) 
expansion

>  <fragmenstein_error>  (57) 


$$$$
C30253-P127
     RDKit          3D

 43 45  0  0  0  0  0  0  0  0999 V2000
   -0.0566    2.9247   15.1951 C   0  0  0  0  0  0  0  0  0  0  0  0
    0.1361    2.4542   13.7434 C   0  0  0  0  0  0  0  0  0  0  0  0
    1.0638    3.4754   12.9810 C   0  0  0  0  0  0  0  0  0  0  0  0
    1.8302    4.6335   13.7533 C   0  0  0  0  0  0  0  0  0  0  0  0
    2.9456    4.3676   14.6978 N   0  0  0  0  0  0  0  0  0  0  0  0
    4.1201    5.1796   15.0531 C   0  0  0  0  0  0  0  0  0  0  0  0
    4.5114    6.2227   14.6099 O   0  0  0  0  0  0  0  0  0  0  0  0
    4.9832    4.6256   16.1873 C   0  0  0  0  0  0  0  0  0  0  0  0
    4.4017    4.1065   17.3559 C   0  0  0  0  0  0  0  0  0  0  0  0
    5.1585    3.4032   18.3001 C   0  0  0  0  0  0  0  0  0  0  0  0
    6.5246    3.1756   18.1092 C   0  0  0  0  0  0  0  0  0  0  0  0
    7.1683    3.7286   16.9895 C   0  0  0  0  0  0  0  0  0  0  0  0
    8.5152    3.6961   16.5277 C   0  0  0  0  0  0  0  0  0  0  0  0
    8.5602    4.4217   15.3626 C   0  0  0  0  0  0  0  0  0  0  0  0
    7.2915    4.8840   15.0966 N   0  0  0  0  0  0  0  0  0  0  0  0
    6.4015    4.4650   16.0685 C   0  0  0  0  0  0  0  0  0  0  0  0
   -1.2454    1.7731   13.3656 N   0  0  0  0  0  0  0  0  0  0  0  0
   -1.5591    0.3495   12.5741 C   0  0  0  0  0  0  0  0  0  0  0  0
   -0.8051   -0.4236   12.0386 O   0  0  0  0  0  0  0  0  0  0  0  0
   -3.2090   -0.1195   12.6766 C   0  0  0  0  0  0  0  0  0  0  0  0
   -4.5053   -0.3312   11.7120 C   0  0  0  0  0  0  0  0  0  0  0  0
   -5.9389   -0.3149   12.4554 C   0  0  0  0  0  0  0  0  0  0  0  0
   -5.5762   -0.4922   14.1138 N   0  0  0  0  0  0  0  0  0  0  0  0
   -3.6830   -0.3136   13.8567 N   0  0  0  0  0  0  0  0  0  0  0  0
   -0.5463    3.9018   15.2194 H   0  0  0  0  0  0  0  0  0  0  0  0
    0.8919    2.9974   15.7311 H   0  0  0  0  0  0  0  0  0  0  0  0
   -0.6694    2.2224   15.7673 H   0  0  0  0  0  0  0  0  0  0  0  0
    0.7788    1.5664   13.8369 H   0  0  0  0  0  0  0  0  0  0  0  0
    0.4363    3.9658   12.2265 H   0  0  0  0  0  0  0  0  0  0  0  0
    1.8336    2.9080   12.4457 H   0  0  0  0  0  0  0  0  0  0  0  0
    1.1060    5.2414   14.3063 H   0  0  0  0  0  0  0  0  0  0  0  0
    2.2551    5.3009   12.9934 H   0  0  0  0  0  0  0  0  0  0  0  0
    2.8778    3.5837   15.3372 H   0  0  0  0  0  0  0  0  0  0  0  0
    3.3349    4.2379   17.5333 H   0  0  0  0  0  0  0  0  0  0  0  0
    4.6740    3.0146   19.1956 H   0  0  0  0  0  0  0  0  0  0  0  0
    7.0817    2.6076   18.8453 H   0  0  0  0  0  0  0  0  0  0  0  0
    9.3540    3.2027   16.9997 H   0  0  0  0  0  0  0  0  0  0  0  0
    9.3773    4.6567   14.6934 H   0  0  0  0  0  0  0  0  0  0  0  0
    7.0282    5.4618   14.3059 H   0  0  0  0  0  0  0  0  0  0  0  0
   -2.1015    2.1349   13.7713 H   0  0  0  0  0  0  0  0  0  0  0  0
   -4.3282   -0.2929   10.6110 H   0  0  0  0  0  0  0  0  0  0  0  0
   -6.9663   -0.1745   12.1854 H   0  0  0  0  0  0  0  0  0  0  0  0
   -6.0151   -0.4485   15.0325 H   0  0  0  0  0  0  0  0  0  0  0  0
  1  2  1  0
  2  3  1  0
  3  4  1  0
  4  5  1  0
  5  6  1  0
  6  7  2  0
  6  8  1  0
  8  9  2  0
  9 10  1  0
 10 11  2  0
 11 12  1  0
 12 13  1  0
 13 14  2  0
 14 15  1  0
 15 16  1  0
  2 17  1  0
 17 18  1  0
 18 19  2  0
 18 20  1  0
 20 21  1  0
 21 22  2  0
 22 23  1  0
 23 24  1  0
 16  8  1  0
 24 20  2  0
 16 12  2  0
  1 25  1  0
  1 26  1  0
  1 27  1  0
  2 28  1  0
  3 29  1  0
  3 30  1  0
  4 31  1  0
  4 32  1  0
  5 33  1  0
  9 34  1  0
 10 35  1  0
 11 36  1  0
 13 37  1  0
 14 38  1  0
 15 39  1  0
 17 40  1  0
 21 41  1  0
 22 42  1  0
 23 43  1  0
M  END
>  <Energy>  (58) 
301.15354516184959

>  <compound_id>  (58) 
30253

>  <target_id>  (58) 
1

>  <reference_id>  (58) 
127

>  <inspiration_ids>  (58) 
[93, 127]

>  <energy_score>  (58) 
233.22673878384137

>  <distance_score>  (58) 
10.52656974731794

>  <path>  (58) 
/opt/xchem-fragalysis-2/maxwin/BulkDock/SCRATCH/511023/C30253-P127/C30253-P127.minimised.mol

>  <scratch_subdir>  (58) 
/opt/xchem-fragalysis-2/maxwin/BulkDock/SCRATCH/511023/C30253-P127

>  <fragmenstein_runtime>  (58) 
7.430565118789673

>  <fragmenstein_outcome>  (58) 
too moved

>  <fragmenstein_mode>  (58) 
expansion

>  <fragmenstein_error>  (58) 


$$$$
C46191-P93
     RDKit          3D

 43 46  0  0  0  0  0  0  0  0999 V2000
    7.4360   -1.2841   14.8645 O   0  0  0  0  0  0  0  0  0  0  0  0
    7.7375   -0.5666   13.9480 C   0  0  0  0  0  0  0  0  0  0  0  0
    7.0367   -0.2851   12.6749 N   0  0  0  0  0  0  0  0  0  0  0  0
    5.6607   -0.7370   12.1638 C   0  0  0  0  0  0  0  0  0  0  0  0
    3.8597   -0.0947   11.2866 C   0  0  0  0  0  0  0  0  0  0  0  0
    1.9708   -0.8270   11.3027 N   0  0  0  0  0  0  0  0  0  0  0  0
    1.7839   -0.0865   12.6622 C   0  0  0  0  0  0  0  0  0  0  0  0
    0.6570   -0.5361   13.1172 C   0  0  0  0  0  0  0  0  0  0  0  0
   -0.6737   -0.4867   12.1435 C   0  0  0  0  0  0  0  0  0  0  0  0
   -2.4416   -0.3254   12.3486 C   0  0  0  0  0  0  0  0  0  0  0  0
   -4.0100   -0.2721   11.2330 C   0  0  0  0  0  0  0  0  0  0  0  0
   -3.2709   -0.2386    9.5841 C   0  0  0  0  0  0  0  0  0  0  0  0
   -1.4940   -0.7767    9.4923 C   0  0  0  0  0  0  0  0  0  0  0  0
    0.1545   -0.9683   10.6423 C   0  0  0  0  0  0  0  0  0  0  0  0
    9.0204    0.2193   14.1438 C   0  0  0  0  0  0  0  0  0  0  0  0
    9.1297    1.5214   13.7987 N   0  0  0  0  0  0  0  0  0  0  0  0
   10.3922    1.8624   14.1413 N   0  0  0  0  0  0  0  0  0  0  0  0
   11.1169    0.8403   14.6607 C   0  0  0  0  0  0  0  0  0  0  0  0
   10.2730   -0.2428   14.7050 C   0  0  0  0  0  0  0  0  0  0  0  0
   10.7672   -1.5780   15.1547 C   0  0  0  0  0  0  0  0  0  0  0  0
   12.3001   -1.6824   15.0368 C   0  0  0  0  0  0  0  0  0  0  0  0
   12.9912   -0.4570   15.6567 C   0  0  0  0  0  0  0  0  0  0  0  0
   12.5652    0.8653   14.9909 C   0  0  0  0  0  0  0  0  0  0  0  0
    7.6189    0.3063   12.0988 H   0  0  0  0  0  0  0  0  0  0  0  0
    5.8858   -1.8053   12.3244 H   0  0  0  0  0  0  0  0  0  0  0  0
    5.5293   -0.3445   13.2076 H   0  0  0  0  0  0  0  0  0  0  0  0
    3.8694    0.5681   10.4193 H   0  0  0  0  0  0  0  0  0  0  0  0
    4.0313   -1.1919   11.4070 H   0  0  0  0  0  0  0  0  0  0  0  0
    2.3617    0.8236   12.8355 H   0  0  0  0  0  0  0  0  0  0  0  0
    0.8649   -1.4643   13.6761 H   0  0  0  0  0  0  0  0  0  0  0  0
   -2.7498    0.3769   13.1356 H   0  0  0  0  0  0  0  0  0  0  0  0
   -4.9768   -0.3773   11.6803 H   0  0  0  0  0  0  0  0  0  0  0  0
   -3.9085   -0.4041    8.7177 H   0  0  0  0  0  0  0  0  0  0  0  0
   -1.5535   -1.2685    8.4872 H   0  0  0  0  0  0  0  0  0  0  0  0
   10.6981    2.8125   13.9570 H   0  0  0  0  0  0  0  0  0  0  0  0
   10.2993   -2.4191   14.6436 H   0  0  0  0  0  0  0  0  0  0  0  0
   10.5067   -1.6880   16.1964 H   0  0  0  0  0  0  0  0  0  0  0  0
   12.5846   -1.7646   13.9800 H   0  0  0  0  0  0  0  0  0  0  0  0
   12.6430   -2.5950   15.5374 H   0  0  0  0  0  0  0  0  0  0  0  0
   14.0797   -0.5652   15.5892 H   0  0  0  0  0  0  0  0  0  0  0  0
   12.7459   -0.4186   16.7249 H   0  0  0  0  0  0  0  0  0  0  0  0
   12.8013    1.7072   15.6507 H   0  0  0  0  0  0  0  0  0  0  0  0
   13.1362    1.0006   14.0644 H   0  0  0  0  0  0  0  0  0  0  0  0
  1  2  2  0
  2  3  1  0
  3  4  1  0
  4  5  1  0
  5  6  1  0
  6  7  1  0
  7  8  2  0
  8  9  1  0
  9 10  2  0
 10 11  1  0
 11 12  2  0
 12 13  1  0
 13 14  2  0
  2 15  1  0
 15 16  2  0
 16 17  1  0
 17 18  1  0
 18 19  2  0
 19 20  1  0
 20 21  1  0
 21 22  1  0
 22 23  1  0
 14  6  1  0
 19 15  1  0
 14  9  1  0
 23 18  1  0
  3 24  1  0
  4 25  1  0
  4 26  1  0
  5 27  1  0
  5 28  1  0
  7 29  1  0
  8 30  1  0
 10 31  1  0
 11 32  1  0
 12 33  1  0
 13 34  1  0
 17 35  1  0
 20 36  1  0
 20 37  1  0
 21 38  1  0
 21 39  1  0
 22 40  1  0
 22 41  1  0
 23 42  1  0
 23 43  1  0
M  END
>  <Energy>  (59) 
1057.3426584356509

>  <compound_id>  (59) 
46191

>  <target_id>  (59) 
1

>  <reference_id>  (59) 
93

>  <inspiration_ids>  (59) 
[93, 127]

>  <energy_score>  (59) 
987.1900890143222

>  <distance_score>  (59) 
6.756162137085415

>  <path>  (59) 
/opt/xchem-fragalysis-2/maxwin/BulkDock/SCRATCH/511023/C46191-P93/C46191-P93.minimised.mol

>  <scratch_subdir>  (59) 
/opt/xchem-fragalysis-2/maxwin/BulkDock/SCRATCH/511023/C46191-P93

>  <fragmenstein_runtime>  (59) 
14.186714887619019

>  <fragmenstein_outcome>  (59) 
too moved

>  <fragmenstein_mode>  (59) 
expansion

>  <fragmenstein_error>  (59) 


$$$$
C46191-P127
     RDKit          3D

 43 46  0  0  0  0  0  0  0  0999 V2000
    9.7728    4.4961   11.8754 O   0  0  0  0  0  0  0  0  0  0  0  0
    9.0724    4.4215   12.8431 C   0  0  0  0  0  0  0  0  0  0  0  0
    7.6639    4.7088   13.0127 N   0  0  0  0  0  0  0  0  0  0  0  0
    6.6268    5.0877   12.0293 C   0  0  0  0  0  0  0  0  0  0  0  0
    5.3022    4.2638   12.1683 C   0  0  0  0  0  0  0  0  0  0  0  0
    4.5355    3.9677   10.9403 N   0  0  0  0  0  0  0  0  0  0  0  0
    5.0521    3.2158    9.9067 C   0  0  0  0  0  0  0  0  0  0  0  0
    4.1151    3.1225    8.9040 C   0  0  0  0  0  0  0  0  0  0  0  0
    2.9377    3.7625    9.3540 C   0  0  0  0  0  0  0  0  0  0  0  0
    1.6856    3.9995    8.7486 C   0  0  0  0  0  0  0  0  0  0  0  0
    0.6651    4.6031    9.4797 C   0  0  0  0  0  0  0  0  0  0  0  0
    0.8781    4.9523   10.8084 C   0  0  0  0  0  0  0  0  0  0  0  0
    2.1333    4.7732   11.4194 C   0  0  0  0  0  0  0  0  0  0  0  0
    3.1802    4.2025   10.6682 C   0  0  0  0  0  0  0  0  0  0  0  0
    9.6693    3.8434   14.1133 C   0  0  0  0  0  0  0  0  0  0  0  0
    9.0834    4.0051   15.3241 N   0  0  0  0  0  0  0  0  0  0  0  0
    9.8267    3.2554   16.1733 N   0  0  0  0  0  0  0  0  0  0  0  0
   10.7739    2.5118   15.5469 C   0  0  0  0  0  0  0  0  0  0  0  0
   10.7519    2.8956   14.2239 C   0  0  0  0  0  0  0  0  0  0  0  0
   11.6714    2.2812   13.2220 C   0  0  0  0  0  0  0  0  0  0  0  0
   12.2334    0.9337   13.7393 C   0  0  0  0  0  0  0  0  0  0  0  0
   12.7242    1.0235   15.1961 C   0  0  0  0  0  0  0  0  0  0  0  0
   11.6121    1.4543   16.1694 C   0  0  0  0  0  0  0  0  0  0  0  0
    7.4217    4.6125   13.9986 H   0  0  0  0  0  0  0  0  0  0  0  0
    7.0654    4.9677   11.0338 H   0  0  0  0  0  0  0  0  0  0  0  0
    6.4169    6.1519   12.1769 H   0  0  0  0  0  0  0  0  0  0  0  0
    5.4899    3.2823   12.6102 H   0  0  0  0  0  0  0  0  0  0  0  0
    4.6285    4.7911   12.8521 H   0  0  0  0  0  0  0  0  0  0  0  0
    6.0611    2.8255    9.9489 H   0  0  0  0  0  0  0  0  0  0  0  0
    4.2659    2.6318    7.9500 H   0  0  0  0  0  0  0  0  0  0  0  0
    1.5275    3.7303    7.7108 H   0  0  0  0  0  0  0  0  0  0  0  0
   -0.2980    4.7917    9.0119 H   0  0  0  0  0  0  0  0  0  0  0  0
    0.0651    5.4011   11.3744 H   0  0  0  0  0  0  0  0  0  0  0  0
    2.2880    5.0955   12.4435 H   0  0  0  0  0  0  0  0  0  0  0  0
    9.5987    3.2729   17.1635 H   0  0  0  0  0  0  0  0  0  0  0  0
   11.1586    2.1160   12.2695 H   0  0  0  0  0  0  0  0  0  0  0  0
   12.5013    2.9731   13.0354 H   0  0  0  0  0  0  0  0  0  0  0  0
   13.0533    0.6099   13.0882 H   0  0  0  0  0  0  0  0  0  0  0  0
   11.4505    0.1666   13.6743 H   0  0  0  0  0  0  0  0  0  0  0  0
   13.5449    1.7512   15.2432 H   0  0  0  0  0  0  0  0  0  0  0  0
   13.1365    0.0595   15.5146 H   0  0  0  0  0  0  0  0  0  0  0  0
   12.0525    1.8031   17.1095 H   0  0  0  0  0  0  0  0  0  0  0  0
   10.9774    0.5898   16.3984 H   0  0  0  0  0  0  0  0  0  0  0  0
  1  2  2  0
  2  3  1  0
  3  4  1  0
  4  5  1  0
  5  6  1  0
  6  7  1  0
  7  8  2  0
  8  9  1  0
  9 10  2  0
 10 11  1  0
 11 12  2  0
 12 13  1  0
 13 14  2  0
  2 15  1  0
 15 16  2  0
 16 17  1  0
 17 18  1  0
 18 19  2  0
 19 20  1  0
 20 21  1  0
 21 22  1  0
 22 23  1  0
 14  6  1  0
 19 15  1  0
 14  9  1  0
 23 18  1  0
  3 24  1  0
  4 25  1  0
  4 26  1  0
  5 27  1  0
  5 28  1  0
  7 29  1  0
  8 30  1  0
 10 31  1  0
 11 32  1  0
 12 33  1  0
 13 34  1  0
 17 35  1  0
 20 36  1  0
 20 37  1  0
 21 38  1  0
 21 39  1  0
 22 40  1  0
 22 41  1  0
 23 42  1  0
 23 43  1  0
M  END
>  <Energy>  (60) 
67.040019765305075

>  <compound_id>  (60) 
46191

>  <target_id>  (60) 
1

>  <reference_id>  (60) 
127

>  <inspiration_ids>  (60) 
[93, 127]

>  <energy_score>  (60) 
-3.1125496560254646

>  <distance_score>  (60) 
8.875009283949005

>  <path>  (60) 
/opt/xchem-fragalysis-2/maxwin/BulkDock/SCRATCH/511023/C46191-P127/C46191-P127.minimised.mol

>  <scratch_subdir>  (60) 
/opt/xchem-fragalysis-2/maxwin/BulkDock/SCRATCH/511023/C46191-P127

>  <fragmenstein_runtime>  (60) 
13.77794861793518

>  <fragmenstein_outcome>  (60) 
too moved

>  <fragmenstein_mode>  (60) 
expansion

>  <fragmenstein_error>  (60) 


$$$$
C46192-P93
     RDKit          3D

 40 43  0  0  0  0  0  0  0  0999 V2000
   -2.4110   -5.6819    5.5910 O   0  0  0  0  0  0  0  0  0  0  0  0
   -2.3711   -5.2984    6.7477 C   0  0  0  0  0  0  0  0  0  0  0  0
   -3.3324   -4.3315    7.5206 N   0  0  0  0  0  0  0  0  0  0  0  0
   -4.5175   -3.5179    7.0388 C   0  0  0  0  0  0  0  0  0  0  0  0
   -4.4638   -2.0180    7.4231 C   0  0  0  0  0  0  0  0  0  0  0  0
   -5.7121   -1.2654    7.3687 N   0  0  0  0  0  0  0  0  0  0  0  0
   -5.7701   -0.0075    7.9273 C   0  0  0  0  0  0  0  0  0  0  0  0
   -7.0629    0.4403    7.8656 C   0  0  0  0  0  0  0  0  0  0  0  0
   -7.8225   -0.5591    7.2083 C   0  0  0  0  0  0  0  0  0  0  0  0
   -9.1903   -0.6564    6.8834 C   0  0  0  0  0  0  0  0  0  0  0  0
   -9.6645   -1.7775    6.2015 C   0  0  0  0  0  0  0  0  0  0  0  0
   -8.7914   -2.7849    5.8218 C   0  0  0  0  0  0  0  0  0  0  0  0
   -7.4296   -2.7081    6.1272 C   0  0  0  0  0  0  0  0  0  0  0  0
   -6.9495   -1.6002    6.8525 C   0  0  0  0  0  0  0  0  0  0  0  0
   -0.7205   -5.9553    7.6135 C   0  0  0  0  0  0  0  0  0  0  0  0
   -0.3513   -6.9926    8.3177 N   0  0  0  0  0  0  0  0  0  0  0  0
    0.5502   -6.5678    7.4037 N   0  0  0  0  0  0  0  0  0  0  0  0
    1.6987   -5.2864    7.9713 C   0  0  0  0  0  0  0  0  0  0  0  0
    0.6306   -4.8778    8.4689 C   0  0  0  0  0  0  0  0  0  0  0  0
    1.2826   -3.1621    8.4046 C   0  0  0  0  0  0  0  0  0  0  0  0
    2.6517   -3.4656    8.5514 C   0  0  0  0  0  0  0  0  0  0  0  0
    3.2139   -4.2956    7.6261 C   0  0  0  0  0  0  0  0  0  0  0  0
   -3.0577   -4.2940    8.4893 H   0  0  0  0  0  0  0  0  0  0  0  0
   -4.6536   -3.6454    5.9717 H   0  0  0  0  0  0  0  0  0  0  0  0
   -5.4353   -3.9009    7.4685 H   0  0  0  0  0  0  0  0  0  0  0  0
   -4.0726   -1.8726    8.4333 H   0  0  0  0  0  0  0  0  0  0  0  0
   -3.7576   -1.4383    6.8459 H   0  0  0  0  0  0  0  0  0  0  0  0
   -4.8811    0.4290    8.3557 H   0  0  0  0  0  0  0  0  0  0  0  0
   -7.4362    1.3773    8.2564 H   0  0  0  0  0  0  0  0  0  0  0  0
   -9.8791    0.1322    7.1710 H   0  0  0  0  0  0  0  0  0  0  0  0
  -10.7224   -1.8640    5.9656 H   0  0  0  0  0  0  0  0  0  0  0  0
   -9.1758   -3.6523    5.2872 H   0  0  0  0  0  0  0  0  0  0  0  0
   -6.7987   -3.5217    5.7954 H   0  0  0  0  0  0  0  0  0  0  0  0
    0.8836   -7.3442    6.8327 H   0  0  0  0  0  0  0  0  0  0  0  0
    0.9759   -2.3697    9.1044 H   0  0  0  0  0  0  0  0  0  0  0  0
    1.2477   -2.4579    7.5702 H   0  0  0  0  0  0  0  0  0  0  0  0
    2.9915   -2.7759    7.7607 H   0  0  0  0  0  0  0  0  0  0  0  0
    2.9776   -3.5108    9.6142 H   0  0  0  0  0  0  0  0  0  0  0  0
    4.2724   -4.8190    7.5913 H   0  0  0  0  0  0  0  0  0  0  0  0
    4.0583   -4.0645    8.3732 H   0  0  0  0  0  0  0  0  0  0  0  0
  1  2  2  0
  2  3  1  0
  3  4  1  0
  4  5  1  0
  5  6  1  0
  6  7  1  0
  7  8  2  0
  8  9  1  0
  9 10  2  0
 10 11  1  0
 11 12  2  0
 12 13  1  0
 13 14  2  0
  2 15  1  0
 15 16  2  0
 16 17  1  0
 17 18  1  0
 18 19  2  0
 19 20  1  0
 20 21  1  0
 21 22  1  0
 14  6  1  0
 19 15  1  0
 14  9  1  0
 22 18  1  0
  3 23  1  0
  4 24  1  0
  4 25  1  0
  5 26  1  0
  5 27  1  0
  7 28  1  0
  8 29  1  0
 10 30  1  0
 11 31  1  0
 12 32  1  0
 13 33  1  0
 17 34  1  0
 20 35  1  0
 20 36  1  0
 21 37  1  0
 21 38  1  0
 22 39  1  0
 22 40  1  0
M  END
>  <Energy>  (61) 
684.8630016944818

>  <compound_id>  (61) 
46192

>  <target_id>  (61) 
1

>  <reference_id>  (61) 
93

>  <inspiration_ids>  (61) 
[93, 127]

>  <energy_score>  (61) 
589.6449019836307

>  <distance_score>  (61) 
1.6829412167380362

>  <path>  (61) 
/opt/xchem-fragalysis-2/maxwin/BulkDock/SCRATCH/511023/C46192-P93/C46192-P93.minimised.mol

>  <scratch_subdir>  (61) 
/opt/xchem-fragalysis-2/maxwin/BulkDock/SCRATCH/511023/C46192-P93

>  <fragmenstein_runtime>  (61) 
11.213495016098022

>  <fragmenstein_outcome>  (61) 
too moved

>  <fragmenstein_mode>  (61) 
expansion

>  <fragmenstein_error>  (61) 


$$$$
C46192-P127
     RDKit          3D

 40 43  0  0  0  0  0  0  0  0999 V2000
   -2.3513   -5.5489    5.5879 O   0  0  0  0  0  0  0  0  0  0  0  0
   -2.2858   -5.1550    6.7166 C   0  0  0  0  0  0  0  0  0  0  0  0
   -3.1328   -4.1543    7.4368 N   0  0  0  0  0  0  0  0  0  0  0  0
   -4.2228   -3.2854    6.9535 C   0  0  0  0  0  0  0  0  0  0  0  0
   -3.9501   -1.8022    7.2370 C   0  0  0  0  0  0  0  0  0  0  0  0
   -5.0342   -0.8562    7.0123 N   0  0  0  0  0  0  0  0  0  0  0  0
   -4.8472    0.4828    7.2880 C   0  0  0  0  0  0  0  0  0  0  0  0
   -6.0549    1.1209    7.1613 C   0  0  0  0  0  0  0  0  0  0  0  0
   -7.0122    0.1509    6.7741 C   0  0  0  0  0  0  0  0  0  0  0  0
   -8.3999    0.2203    6.5369 C   0  0  0  0  0  0  0  0  0  0  0  0
   -9.0929   -0.9181    6.1234 C   0  0  0  0  0  0  0  0  0  0  0  0
   -8.4157   -2.1091    5.9130 C   0  0  0  0  0  0  0  0  0  0  0  0
   -7.0386   -2.2003    6.1364 C   0  0  0  0  0  0  0  0  0  0  0  0
   -6.3412   -1.0713    6.6109 C   0  0  0  0  0  0  0  0  0  0  0  0
   -0.6767   -5.9122    7.5850 C   0  0  0  0  0  0  0  0  0  0  0  0
   -0.2823   -6.8274    8.4565 N   0  0  0  0  0  0  0  0  0  0  0  0
    0.5909   -6.4878    7.5067 N   0  0  0  0  0  0  0  0  0  0  0  0
    1.8871   -5.3192    7.9236 C   0  0  0  0  0  0  0  0  0  0  0  0
    0.7842   -4.7364    8.0716 C   0  0  0  0  0  0  0  0  0  0  0  0
    1.5799   -2.9111    8.0446 C   0  0  0  0  0  0  0  0  0  0  0  0
    3.0694   -3.3253    8.5120 C   0  0  0  0  0  0  0  0  0  0  0  0
    3.3575   -4.1905    7.5239 C   0  0  0  0  0  0  0  0  0  0  0  0
   -2.8563   -4.1221    8.3987 H   0  0  0  0  0  0  0  0  0  0  0  0
   -4.2890   -3.3749    5.8654 H   0  0  0  0  0  0  0  0  0  0  0  0
   -5.1624   -3.5755    7.4030 H   0  0  0  0  0  0  0  0  0  0  0  0
   -3.6452   -1.6676    8.2819 H   0  0  0  0  0  0  0  0  0  0  0  0
   -3.1161   -1.4436    6.6252 H   0  0  0  0  0  0  0  0  0  0  0  0
   -3.8795    0.8616    7.5916 H   0  0  0  0  0  0  0  0  0  0  0  0
   -6.2412    2.1703    7.3478 H   0  0  0  0  0  0  0  0  0  0  0  0
   -8.9321    1.1561    6.6812 H   0  0  0  0  0  0  0  0  0  0  0  0
  -10.1658   -0.8678    5.9585 H   0  0  0  0  0  0  0  0  0  0  0  0
   -8.9629   -2.9887    5.5781 H   0  0  0  0  0  0  0  0  0  0  0  0
   -6.5657   -3.1526    5.9339 H   0  0  0  0  0  0  0  0  0  0  0  0
    0.8236   -7.3084    6.9296 H   0  0  0  0  0  0  0  0  0  0  0  0
    1.5423   -2.0999    7.3145 H   0  0  0  0  0  0  0  0  0  0  0  0
    1.1115   -2.1839    8.7859 H   0  0  0  0  0  0  0  0  0  0  0  0
    3.8586   -2.8457    8.9447 H   0  0  0  0  0  0  0  0  0  0  0  0
    3.2928   -3.8785    9.4146 H   0  0  0  0  0  0  0  0  0  0  0  0
    3.6033   -3.6904    6.5730 H   0  0  0  0  0  0  0  0  0  0  0  0
    4.4168   -4.5741    7.7271 H   0  0  0  0  0  0  0  0  0  0  0  0
  1  2  2  0
  2  3  1  0
  3  4  1  0
  4  5  1  0
  5  6  1  0
  6  7  1  0
  7  8  2  0
  8  9  1  0
  9 10  2  0
 10 11  1  0
 11 12  2  0
 12 13  1  0
 13 14  2  0
  2 15  1  0
 15 16  2  0
 16 17  1  0
 17 18  1  0
 18 19  2  0
 19 20  1  0
 20 21  1  0
 21 22  1  0
 14  6  1  0
 19 15  1  0
 14  9  1  0
 22 18  1  0
  3 23  1  0
  4 24  1  0
  4 25  1  0
  5 26  1  0
  5 27  1  0
  7 28  1  0
  8 29  1  0
 10 30  1  0
 11 31  1  0
 12 32  1  0
 13 33  1  0
 17 34  1  0
 20 35  1  0
 20 36  1  0
 21 37  1  0
 21 38  1  0
 22 39  1  0
 22 40  1  0
M  END
>  <Energy>  (62) 
648.92598763425451

>  <compound_id>  (62) 
46192

>  <target_id>  (62) 
1

>  <reference_id>  (62) 
127

>  <inspiration_ids>  (62) 
[93, 127]

>  <energy_score>  (62) 
553.7078879234061

>  <distance_score>  (62) 
1.446318354100596

>  <path>  (62) 
/opt/xchem-fragalysis-2/maxwin/BulkDock/SCRATCH/511023/C46192-P127/C46192-P127.minimised.mol

>  <scratch_subdir>  (62) 
/opt/xchem-fragalysis-2/maxwin/BulkDock/SCRATCH/511023/C46192-P127

>  <fragmenstein_runtime>  (62) 
9.150492191314697

>  <fragmenstein_outcome>  (62) 
too moved

>  <fragmenstein_mode>  (62) 
expansion

>  <fragmenstein_error>  (62) 


$$$$
C46192-P93
     RDKit          3D

 40 43  0  0  0  0  0  0  0  0999 V2000
   -2.4110   -5.6819    5.5910 O   0  0  0  0  0  0  0  0  0  0  0  0
   -2.3711   -5.2984    6.7477 C   0  0  0  0  0  0  0  0  0  0  0  0
   -3.3324   -4.3315    7.5206 N   0  0  0  0  0  0  0  0  0  0  0  0
   -4.5175   -3.5179    7.0388 C   0  0  0  0  0  0  0  0  0  0  0  0
   -4.4638   -2.0180    7.4231 C   0  0  0  0  0  0  0  0  0  0  0  0
   -5.7121   -1.2654    7.3687 N   0  0  0  0  0  0  0  0  0  0  0  0
   -5.7701   -0.0075    7.9273 C   0  0  0  0  0  0  0  0  0  0  0  0
   -7.0629    0.4403    7.8656 C   0  0  0  0  0  0  0  0  0  0  0  0
   -7.8225   -0.5591    7.2083 C   0  0  0  0  0  0  0  0  0  0  0  0
   -9.1903   -0.6564    6.8834 C   0  0  0  0  0  0  0  0  0  0  0  0
   -9.6645   -1.7775    6.2015 C   0  0  0  0  0  0  0  0  0  0  0  0
   -8.7914   -2.7849    5.8218 C   0  0  0  0  0  0  0  0  0  0  0  0
   -7.4296   -2.7081    6.1272 C   0  0  0  0  0  0  0  0  0  0  0  0
   -6.9495   -1.6002    6.8525 C   0  0  0  0  0  0  0  0  0  0  0  0
   -0.7205   -5.9553    7.6135 C   0  0  0  0  0  0  0  0  0  0  0  0
   -0.3513   -6.9926    8.3177 N   0  0  0  0  0  0  0  0  0  0  0  0
    0.5502   -6.5678    7.4037 N   0  0  0  0  0  0  0  0  0  0  0  0
    1.6987   -5.2864    7.9713 C   0  0  0  0  0  0  0  0  0  0  0  0
    0.6306   -4.8778    8.4689 C   0  0  0  0  0  0  0  0  0  0  0  0
    1.2826   -3.1621    8.4046 C   0  0  0  0  0  0  0  0  0  0  0  0
    2.6517   -3.4656    8.5514 C   0  0  0  0  0  0  0  0  0  0  0  0
    3.2139   -4.2956    7.6261 C   0  0  0  0  0  0  0  0  0  0  0  0
   -3.0577   -4.2940    8.4893 H   0  0  0  0  0  0  0  0  0  0  0  0
   -4.6536   -3.6454    5.9717 H   0  0  0  0  0  0  0  0  0  0  0  0
   -5.4353   -3.9009    7.4685 H   0  0  0  0  0  0  0  0  0  0  0  0
   -4.0726   -1.8726    8.4333 H   0  0  0  0  0  0  0  0  0  0  0  0
   -3.7576   -1.4383    6.8459 H   0  0  0  0  0  0  0  0  0  0  0  0
   -4.8811    0.4290    8.3557 H   0  0  0  0  0  0  0  0  0  0  0  0
   -7.4362    1.3773    8.2564 H   0  0  0  0  0  0  0  0  0  0  0  0
   -9.8791    0.1322    7.1710 H   0  0  0  0  0  0  0  0  0  0  0  0
  -10.7224   -1.8640    5.9656 H   0  0  0  0  0  0  0  0  0  0  0  0
   -9.1758   -3.6523    5.2872 H   0  0  0  0  0  0  0  0  0  0  0  0
   -6.7987   -3.5217    5.7954 H   0  0  0  0  0  0  0  0  0  0  0  0
    0.8836   -7.3442    6.8327 H   0  0  0  0  0  0  0  0  0  0  0  0
    0.9759   -2.3697    9.1044 H   0  0  0  0  0  0  0  0  0  0  0  0
    1.2477   -2.4579    7.5702 H   0  0  0  0  0  0  0  0  0  0  0  0
    2.9915   -2.7759    7.7607 H   0  0  0  0  0  0  0  0  0  0  0  0
    2.9776   -3.5108    9.6142 H   0  0  0  0  0  0  0  0  0  0  0  0
    4.2724   -4.8190    7.5913 H   0  0  0  0  0  0  0  0  0  0  0  0
    4.0583   -4.0645    8.3732 H   0  0  0  0  0  0  0  0  0  0  0  0
  1  2  2  0
  2  3  1  0
  3  4  1  0
  4  5  1  0
  5  6  1  0
  6  7  1  0
  7  8  2  0
  8  9  1  0
  9 10  2  0
 10 11  1  0
 11 12  2  0
 12 13  1  0
 13 14  2  0
  2 15  1  0
 15 16  2  0
 16 17  1  0
 17 18  1  0
 18 19  2  0
 19 20  1  0
 20 21  1  0
 21 22  1  0
 14  6  1  0
 19 15  1  0
 14  9  1  0
 22 18  1  0
  3 23  1  0
  4 24  1  0
  4 25  1  0
  5 26  1  0
  5 27  1  0
  7 28  1  0
  8 29  1  0
 10 30  1  0
 11 31  1  0
 12 32  1  0
 13 33  1  0
 17 34  1  0
 20 35  1  0
 20 36  1  0
 21 37  1  0
 21 38  1  0
 22 39  1  0
 22 40  1  0
M  END
>  <Energy>  (63) 
684.8630016944818

>  <compound_id>  (63) 
46192

>  <target_id>  (63) 
1

>  <reference_id>  (63) 
93

>  <inspiration_ids>  (63) 
[93, 127]

>  <energy_score>  (63) 
589.6449019836307

>  <distance_score>  (63) 
1.6829412167380362

>  <path>  (63) 
/opt/xchem-fragalysis-2/maxwin/BulkDock/SCRATCH/511023/C46192-P93/C46192-P93.minimised.mol

>  <scratch_subdir>  (63) 
/opt/xchem-fragalysis-2/maxwin/BulkDock/SCRATCH/511023/C46192-P93

>  <fragmenstein_runtime>  (63) 
10.792781352996826

>  <fragmenstein_outcome>  (63) 
too moved

>  <fragmenstein_mode>  (63) 
expansion

>  <fragmenstein_error>  (63) 


$$$$
C46192-P127
     RDKit          3D

 40 43  0  0  0  0  0  0  0  0999 V2000
   -2.3513   -5.5489    5.5879 O   0  0  0  0  0  0  0  0  0  0  0  0
   -2.2858   -5.1550    6.7166 C   0  0  0  0  0  0  0  0  0  0  0  0
   -3.1328   -4.1543    7.4368 N   0  0  0  0  0  0  0  0  0  0  0  0
   -4.2228   -3.2854    6.9535 C   0  0  0  0  0  0  0  0  0  0  0  0
   -3.9501   -1.8022    7.2370 C   0  0  0  0  0  0  0  0  0  0  0  0
   -5.0342   -0.8562    7.0123 N   0  0  0  0  0  0  0  0  0  0  0  0
   -4.8472    0.4828    7.2880 C   0  0  0  0  0  0  0  0  0  0  0  0
   -6.0549    1.1209    7.1613 C   0  0  0  0  0  0  0  0  0  0  0  0
   -7.0122    0.1509    6.7741 C   0  0  0  0  0  0  0  0  0  0  0  0
   -8.3999    0.2203    6.5369 C   0  0  0  0  0  0  0  0  0  0  0  0
   -9.0929   -0.9181    6.1234 C   0  0  0  0  0  0  0  0  0  0  0  0
   -8.4157   -2.1091    5.9130 C   0  0  0  0  0  0  0  0  0  0  0  0
   -7.0386   -2.2003    6.1364 C   0  0  0  0  0  0  0  0  0  0  0  0
   -6.3412   -1.0713    6.6109 C   0  0  0  0  0  0  0  0  0  0  0  0
   -0.6767   -5.9122    7.5850 C   0  0  0  0  0  0  0  0  0  0  0  0
   -0.2823   -6.8274    8.4565 N   0  0  0  0  0  0  0  0  0  0  0  0
    0.5909   -6.4878    7.5067 N   0  0  0  0  0  0  0  0  0  0  0  0
    1.8871   -5.3192    7.9236 C   0  0  0  0  0  0  0  0  0  0  0  0
    0.7842   -4.7364    8.0716 C   0  0  0  0  0  0  0  0  0  0  0  0
    1.5799   -2.9111    8.0446 C   0  0  0  0  0  0  0  0  0  0  0  0
    3.0694   -3.3253    8.5120 C   0  0  0  0  0  0  0  0  0  0  0  0
    3.3575   -4.1905    7.5239 C   0  0  0  0  0  0  0  0  0  0  0  0
   -2.8563   -4.1221    8.3987 H   0  0  0  0  0  0  0  0  0  0  0  0
   -4.2890   -3.3749    5.8654 H   0  0  0  0  0  0  0  0  0  0  0  0
   -5.1624   -3.5755    7.4030 H   0  0  0  0  0  0  0  0  0  0  0  0
   -3.6452   -1.6676    8.2819 H   0  0  0  0  0  0  0  0  0  0  0  0
   -3.1161   -1.4436    6.6252 H   0  0  0  0  0  0  0  0  0  0  0  0
   -3.8795    0.8616    7.5916 H   0  0  0  0  0  0  0  0  0  0  0  0
   -6.2412    2.1703    7.3478 H   0  0  0  0  0  0  0  0  0  0  0  0
   -8.9321    1.1561    6.6812 H   0  0  0  0  0  0  0  0  0  0  0  0
  -10.1658   -0.8678    5.9585 H   0  0  0  0  0  0  0  0  0  0  0  0
   -8.9629   -2.9887    5.5781 H   0  0  0  0  0  0  0  0  0  0  0  0
   -6.5657   -3.1526    5.9339 H   0  0  0  0  0  0  0  0  0  0  0  0
    0.8236   -7.3084    6.9296 H   0  0  0  0  0  0  0  0  0  0  0  0
    1.5423   -2.0999    7.3145 H   0  0  0  0  0  0  0  0  0  0  0  0
    1.1115   -2.1839    8.7859 H   0  0  0  0  0  0  0  0  0  0  0  0
    3.8586   -2.8457    8.9447 H   0  0  0  0  0  0  0  0  0  0  0  0
    3.2928   -3.8785    9.4146 H   0  0  0  0  0  0  0  0  0  0  0  0
    3.6033   -3.6904    6.5730 H   0  0  0  0  0  0  0  0  0  0  0  0
    4.4168   -4.5741    7.7271 H   0  0  0  0  0  0  0  0  0  0  0  0
  1  2  2  0
  2  3  1  0
  3  4  1  0
  4  5  1  0
  5  6  1  0
  6  7  1  0
  7  8  2  0
  8  9  1  0
  9 10  2  0
 10 11  1  0
 11 12  2  0
 12 13  1  0
 13 14  2  0
  2 15  1  0
 15 16  2  0
 16 17  1  0
 17 18  1  0
 18 19  2  0
 19 20  1  0
 20 21  1  0
 21 22  1  0
 14  6  1  0
 19 15  1  0
 14  9  1  0
 22 18  1  0
  3 23  1  0
  4 24  1  0
  4 25  1  0
  5 26  1  0
  5 27  1  0
  7 28  1  0
  8 29  1  0
 10 30  1  0
 11 31  1  0
 12 32  1  0
 13 33  1  0
 17 34  1  0
 20 35  1  0
 20 36  1  0
 21 37  1  0
 21 38  1  0
 22 39  1  0
 22 40  1  0
M  END
>  <Energy>  (64) 
648.92598763425451

>  <compound_id>  (64) 
46192

>  <target_id>  (64) 
1

>  <reference_id>  (64) 
127

>  <inspiration_ids>  (64) 
[93, 127]

>  <energy_score>  (64) 
553.7078879234061

>  <distance_score>  (64) 
1.446318354100596

>  <path>  (64) 
/opt/xchem-fragalysis-2/maxwin/BulkDock/SCRATCH/511023/C46192-P127/C46192-P127.minimised.mol

>  <scratch_subdir>  (64) 
/opt/xchem-fragalysis-2/maxwin/BulkDock/SCRATCH/511023/C46192-P127

>  <fragmenstein_runtime>  (64) 
8.84129023551941

>  <fragmenstein_outcome>  (64) 
too moved

>  <fragmenstein_mode>  (64) 
expansion

>  <fragmenstein_error>  (64) 


$$$$
C46194-P93
     RDKit          3D

 44 47  0  0  0  0  0  0  0  0999 V2000
   -4.6443   -0.6994    8.3801 C   0  0  0  0  0  0  0  0  0  0  0  0
   -3.3436   -0.8376    7.8399 O   0  0  0  0  0  0  0  0  0  0  0  0
   -2.4021   -1.2514    8.6784 C   0  0  0  0  0  0  0  0  0  0  0  0
   -1.2679   -1.7637    8.3809 C   0  0  0  0  0  0  0  0  0  0  0  0
    0.6206   -2.1116    9.1326 C   0  0  0  0  0  0  0  0  0  0  0  0
    1.4867   -1.3092   10.4838 C   0  0  0  0  0  0  0  0  0  0  0  0
    0.4479   -0.5451   10.0608 C   0  0  0  0  0  0  0  0  0  0  0  0
    1.8231    0.7160    9.4916 C   0  0  0  0  0  0  0  0  0  0  0  0
    2.8607    1.0335   10.3852 C   0  0  0  0  0  0  0  0  0  0  0  0
    2.7724   -0.1478   11.3093 N   0  0  0  0  0  0  0  0  0  0  0  0
    4.6356   -0.5373   11.3641 C   0  0  0  0  0  0  0  0  0  0  0  0
    6.2454   -0.9966   12.4952 C   0  0  0  0  0  0  0  0  0  0  0  0
    7.5891   -0.9829   13.6724 N   0  0  0  0  0  0  0  0  0  0  0  0
    9.0169   -0.1670   13.6638 C   0  0  0  0  0  0  0  0  0  0  0  0
    9.4133    0.6749   12.8801 O   0  0  0  0  0  0  0  0  0  0  0  0
   10.1345   -0.5097   14.6565 C   0  0  0  0  0  0  0  0  0  0  0  0
   11.3229   -0.6045   13.8240 N   0  0  0  0  0  0  0  0  0  0  0  0
   11.8444   -1.8788   13.8466 N   0  0  0  0  0  0  0  0  0  0  0  0
   11.3166   -2.3754   14.9817 C   0  0  0  0  0  0  0  0  0  0  0  0
   10.8126   -1.2193   15.6665 C   0  0  0  0  0  0  0  0  0  0  0  0
   12.1653   -0.8387   16.4131 C   0  0  0  0  0  0  0  0  0  0  0  0
   13.0348   -2.1274   16.5142 C   0  0  0  0  0  0  0  0  0  0  0  0
   12.2135   -3.2156   15.8227 C   0  0  0  0  0  0  0  0  0  0  0  0
   -1.4210   -0.6262    9.3303 C   0  0  0  0  0  0  0  0  0  0  0  0
   -5.2295   -1.5933    8.1588 H   0  0  0  0  0  0  0  0  0  0  0  0
   -5.1362    0.1439    7.8867 H   0  0  0  0  0  0  0  0  0  0  0  0
   -4.6216   -0.4976    9.4450 H   0  0  0  0  0  0  0  0  0  0  0  0
   -1.3400   -1.6908    7.2547 H   0  0  0  0  0  0  0  0  0  0  0  0
    1.3184   -2.5198    8.3679 H   0  0  0  0  0  0  0  0  0  0  0  0
    1.8277    1.4247    8.6609 H   0  0  0  0  0  0  0  0  0  0  0  0
    3.6669    1.7508   10.4298 H   0  0  0  0  0  0  0  0  0  0  0  0
    4.8108    0.0197   10.4789 H   0  0  0  0  0  0  0  0  0  0  0  0
    4.1187   -1.5024   11.5022 H   0  0  0  0  0  0  0  0  0  0  0  0
    5.8729   -0.3585   13.2833 H   0  0  0  0  0  0  0  0  0  0  0  0
    6.9507   -0.7531   11.7022 H   0  0  0  0  0  0  0  0  0  0  0  0
    7.6019   -1.6735   14.4090 H   0  0  0  0  0  0  0  0  0  0  0  0
   11.4185   -0.0835   12.9609 H   0  0  0  0  0  0  0  0  0  0  0  0
   12.7083   -0.0588   15.8626 H   0  0  0  0  0  0  0  0  0  0  0  0
   12.0567   -0.4682   17.3900 H   0  0  0  0  0  0  0  0  0  0  0  0
   13.2787   -2.4039   17.5433 H   0  0  0  0  0  0  0  0  0  0  0  0
   13.9857   -1.9642   15.9915 H   0  0  0  0  0  0  0  0  0  0  0  0
   12.8614   -3.8813   15.2729 H   0  0  0  0  0  0  0  0  0  0  0  0
   11.6392   -3.8078   16.5387 H   0  0  0  0  0  0  0  0  0  0  0  0
   -1.9082    0.3870    9.1340 H   0  0  0  0  0  0  0  0  0  0  0  0
  1  2  1  0
  2  3  1  0
  3  4  2  0
  4  5  1  0
  5  6  2  0
  6  7  1  0
  7  8  1  0
  8  9  2  0
  9 10  1  0
 10 11  1  0
 11 12  1  0
 12 13  1  0
 13 14  1  0
 14 15  2  0
 14 16  1  0
 16 17  1  0
 17 18  1  0
 18 19  2  0
 19 20  1  0
 20 21  1  0
 21 22  1  0
 22 23  1  0
  7 24  2  0
 24  3  1  0
 10  6  1  0
 20 16  2  0
 23 19  1  0
  1 25  1  0
  1 26  1  0
  1 27  1  0
  4 28  1  0
  5 29  1  0
  8 30  1  0
  9 31  1  0
 11 32  1  0
 11 33  1  0
 12 34  1  0
 12 35  1  0
 13 36  1  0
 17 37  1  0
 21 38  1  0
 21 39  1  0
 22 40  1  0
 22 41  1  0
 23 42  1  0
 23 43  1  0
 24 44  1  0
M  END
>  <Energy>  (65) 
1126.0210967399553

>  <compound_id>  (65) 
46194

>  <target_id>  (65) 
1

>  <reference_id>  (65) 
93

>  <inspiration_ids>  (65) 
[93, 127]

>  <energy_score>  (65) 
1073.7025685852652

>  <distance_score>  (65) 
5.912629246801423

>  <path>  (65) 
/opt/xchem-fragalysis-2/maxwin/BulkDock/SCRATCH/511023/C46194-P93/C46194-P93.minimised.mol

>  <scratch_subdir>  (65) 
/opt/xchem-fragalysis-2/maxwin/BulkDock/SCRATCH/511023/C46194-P93

>  <fragmenstein_runtime>  (65) 
13.315014839172363

>  <fragmenstein_outcome>  (65) 
too moved

>  <fragmenstein_mode>  (65) 
expansion

>  <fragmenstein_error>  (65) 


$$$$
C46194-P127
     RDKit          3D

 44 47  0  0  0  0  0  0  0  0999 V2000
   -5.7888    0.1010    5.3923 C   0  0  0  0  0  0  0  0  0  0  0  0
   -4.6829   -0.0436    4.4995 O   0  0  0  0  0  0  0  0  0  0  0  0
   -3.4690   -0.4070    5.0437 C   0  0  0  0  0  0  0  0  0  0  0  0
   -3.3047   -0.7891    6.4000 C   0  0  0  0  0  0  0  0  0  0  0  0
   -2.0440   -1.0949    6.9994 C   0  0  0  0  0  0  0  0  0  0  0  0
   -0.7588   -1.1013    6.2140 C   0  0  0  0  0  0  0  0  0  0  0  0
   -0.9313   -0.8852    4.5226 C   0  0  0  0  0  0  0  0  0  0  0  0
    0.4516   -1.2104    3.8259 C   0  0  0  0  0  0  0  0  0  0  0  0
    1.3655   -1.9332    4.7480 C   0  0  0  0  0  0  0  0  0  0  0  0
    0.9576   -1.5889    6.5369 N   0  0  0  0  0  0  0  0  0  0  0  0
    2.0601   -0.5336    7.8104 C   0  0  0  0  0  0  0  0  0  0  0  0
    2.2677    1.0729    9.1645 C   0  0  0  0  0  0  0  0  0  0  0  0
    3.1463    0.6122   10.8671 N   0  0  0  0  0  0  0  0  0  0  0  0
    4.9282    0.3931   11.3017 C   0  0  0  0  0  0  0  0  0  0  0  0
    5.7466    0.6591   10.4944 O   0  0  0  0  0  0  0  0  0  0  0  0
    5.7804   -0.4169   12.8216 C   0  0  0  0  0  0  0  0  0  0  0  0
    6.6824   -1.5279   12.4558 N   0  0  0  0  0  0  0  0  0  0  0  0
    6.8424   -2.5689   13.2842 N   0  0  0  0  0  0  0  0  0  0  0  0
    6.9334   -1.8826   14.3819 C   0  0  0  0  0  0  0  0  0  0  0  0
    6.0401   -0.8065   14.3609 C   0  0  0  0  0  0  0  0  0  0  0  0
    6.1225   -0.2279   15.8315 C   0  0  0  0  0  0  0  0  0  0  0  0
    7.6026   -0.6277   16.2158 C   0  0  0  0  0  0  0  0  0  0  0  0
    7.8022   -2.0153   15.5338 C   0  0  0  0  0  0  0  0  0  0  0  0
   -2.3508   -0.3642    4.1184 C   0  0  0  0  0  0  0  0  0  0  0  0
   -5.5721    0.8356    6.1749 H   0  0  0  0  0  0  0  0  0  0  0  0
   -6.0749   -0.8663    5.8175 H   0  0  0  0  0  0  0  0  0  0  0  0
   -6.6374    0.4734    4.8106 H   0  0  0  0  0  0  0  0  0  0  0  0
   -4.1631   -0.8408    7.0662 H   0  0  0  0  0  0  0  0  0  0  0  0
   -2.0319   -1.3530    8.0561 H   0  0  0  0  0  0  0  0  0  0  0  0
    0.6712   -1.0525    2.7753 H   0  0  0  0  0  0  0  0  0  0  0  0
    2.3310   -2.3574    4.5562 H   0  0  0  0  0  0  0  0  0  0  0  0
    1.7126   -1.3468    8.4932 H   0  0  0  0  0  0  0  0  0  0  0  0
    2.9281   -0.8590    7.3630 H   0  0  0  0  0  0  0  0  0  0  0  0
    1.5201    1.8361    9.2047 H   0  0  0  0  0  0  0  0  0  0  0  0
    3.0644    1.6858    8.6764 H   0  0  0  0  0  0  0  0  0  0  0  0
    2.5885    0.4216   11.6908 H   0  0  0  0  0  0  0  0  0  0  0  0
    7.1911   -1.5437   11.5838 H   0  0  0  0  0  0  0  0  0  0  0  0
    5.9188    0.8428   15.9262 H   0  0  0  0  0  0  0  0  0  0  0  0
    5.5010   -0.7607   16.5525 H   0  0  0  0  0  0  0  0  0  0  0  0
    7.7747   -0.5806   17.2906 H   0  0  0  0  0  0  0  0  0  0  0  0
    8.3215    0.0800   15.7858 H   0  0  0  0  0  0  0  0  0  0  0  0
    8.8513   -2.1916   15.2872 H   0  0  0  0  0  0  0  0  0  0  0  0
    7.3876   -2.8607   16.0644 H   0  0  0  0  0  0  0  0  0  0  0  0
   -2.4975   -0.0503    3.0861 H   0  0  0  0  0  0  0  0  0  0  0  0
  1  2  1  0
  2  3  1  0
  3  4  2  0
  4  5  1  0
  5  6  2  0
  6  7  1  0
  7  8  1  0
  8  9  2  0
  9 10  1  0
 10 11  1  0
 11 12  1  0
 12 13  1  0
 13 14  1  0
 14 15  2  0
 14 16  1  0
 16 17  1  0
 17 18  1  0
 18 19  2  0
 19 20  1  0
 20 21  1  0
 21 22  1  0
 22 23  1  0
  7 24  2  0
 24  3  1  0
 10  6  1  0
 20 16  2  0
 23 19  1  0
  1 25  1  0
  1 26  1  0
  1 27  1  0
  4 28  1  0
  5 29  1  0
  8 30  1  0
  9 31  1  0
 11 32  1  0
 11 33  1  0
 12 34  1  0
 12 35  1  0
 13 36  1  0
 17 37  1  0
 21 38  1  0
 21 39  1  0
 22 40  1  0
 22 41  1  0
 23 42  1  0
 23 43  1  0
 24 44  1  0
M  END
>  <Energy>  (66) 
693.16719976445279

>  <compound_id>  (66) 
46194

>  <target_id>  (66) 
1

>  <reference_id>  (66) 
127

>  <inspiration_ids>  (66) 
[93, 127]

>  <energy_score>  (66) 
640.8486716097593

>  <distance_score>  (66) 
7.744492833994527

>  <path>  (66) 
/opt/xchem-fragalysis-2/maxwin/BulkDock/SCRATCH/511023/C46194-P127/C46194-P127.minimised.mol

>  <scratch_subdir>  (66) 
/opt/xchem-fragalysis-2/maxwin/BulkDock/SCRATCH/511023/C46194-P127

>  <fragmenstein_runtime>  (66) 
13.36159086227417

>  <fragmenstein_outcome>  (66) 
too moved

>  <fragmenstein_mode>  (66) 
expansion

>  <fragmenstein_error>  (66) 


$$$$
C46195-P93
     RDKit          3D

 50 53  0  0  0  0  0  0  0  0999 V2000
   -4.1288   -0.5010    8.4212 C   0  0  0  0  0  0  0  0  0  0  0  0
   -3.4902    0.1808    9.4961 O   0  0  0  0  0  0  0  0  0  0  0  0
   -2.2256   -0.1709    9.9123 C   0  0  0  0  0  0  0  0  0  0  0  0
   -1.3784   -0.8743    9.2884 C   0  0  0  0  0  0  0  0  0  0  0  0
    0.3548   -1.1425   10.1204 C   0  0  0  0  0  0  0  0  0  0  0  0
    1.2648   -0.9360   11.3893 C   0  0  0  0  0  0  0  0  0  0  0  0
    0.1902   -0.4869   12.3989 C   0  0  0  0  0  0  0  0  0  0  0  0
    1.1063    0.1917   13.5128 C   0  0  0  0  0  0  0  0  0  0  0  0
    2.2754    0.7687   12.9074 C   0  0  0  0  0  0  0  0  0  0  0  0
    2.7125   -0.0305   11.7285 N   0  0  0  0  0  0  0  0  0  0  0  0
    4.5144   -0.3620   11.2974 C   0  0  0  0  0  0  0  0  0  0  0  0
    6.0351   -0.9214   12.4381 C   0  0  0  0  0  0  0  0  0  0  0  0
    7.3510   -0.6454   12.9894 N   0  0  0  0  0  0  0  0  0  0  0  0
    7.9556   -1.0171   14.3033 C   0  0  0  0  0  0  0  0  0  0  0  0
    7.5291   -1.7028   15.1909 O   0  0  0  0  0  0  0  0  0  0  0  0
    9.3079   -0.3391   14.6539 C   0  0  0  0  0  0  0  0  0  0  0  0
    9.3351    0.9909   14.8877 N   0  0  0  0  0  0  0  0  0  0  0  0
   10.5847    1.2690   15.2647 N   0  0  0  0  0  0  0  0  0  0  0  0
   11.3981    0.1864   15.3457 C   0  0  0  0  0  0  0  0  0  0  0  0
   10.6233   -0.9020   14.9839 C   0  0  0  0  0  0  0  0  0  0  0  0
   11.1454   -2.3092   14.8694 C   0  0  0  0  0  0  0  0  0  0  0  0
   12.2545   -2.6601   15.8703 C   0  0  0  0  0  0  0  0  0  0  0  0
   13.6452   -2.0949   15.5683 C   0  0  0  0  0  0  0  0  0  0  0  0
   13.7086   -0.6883   14.9830 C   0  0  0  0  0  0  0  0  0  0  0  0
   12.8336    0.3148   15.7213 C   0  0  0  0  0  0  0  0  0  0  0  0
   -1.5068   -0.3767   11.7680 C   0  0  0  0  0  0  0  0  0  0  0  0
   -3.4698   -0.7360    7.5860 H   0  0  0  0  0  0  0  0  0  0  0  0
   -4.5873   -1.4153    8.7791 H   0  0  0  0  0  0  0  0  0  0  0  0
   -4.9360    0.1377    8.0505 H   0  0  0  0  0  0  0  0  0  0  0  0
   -1.6701   -1.3274    8.3322 H   0  0  0  0  0  0  0  0  0  0  0  0
    1.0192   -1.7657    9.4816 H   0  0  0  0  0  0  0  0  0  0  0  0
    0.7137    0.6823   14.3993 H   0  0  0  0  0  0  0  0  0  0  0  0
    2.9355    1.5702   13.2211 H   0  0  0  0  0  0  0  0  0  0  0  0
    4.1134   -1.3573   11.4304 H   0  0  0  0  0  0  0  0  0  0  0  0
    4.4792    0.3375   10.4560 H   0  0  0  0  0  0  0  0  0  0  0  0
    5.7125   -0.5000   13.3993 H   0  0  0  0  0  0  0  0  0  0  0  0
    6.0904   -2.0084   12.4641 H   0  0  0  0  0  0  0  0  0  0  0  0
    8.0112   -0.1297   12.4616 H   0  0  0  0  0  0  0  0  0  0  0  0
   10.8214    2.2386   15.4511 H   0  0  0  0  0  0  0  0  0  0  0  0
   10.3142   -3.0042   15.0069 H   0  0  0  0  0  0  0  0  0  0  0  0
   11.5325   -2.4758   13.8575 H   0  0  0  0  0  0  0  0  0  0  0  0
   11.9726   -2.3241   16.8671 H   0  0  0  0  0  0  0  0  0  0  0  0
   12.3407   -3.7516   15.9348 H   0  0  0  0  0  0  0  0  0  0  0  0
   14.2269   -2.1199   16.4992 H   0  0  0  0  0  0  0  0  0  0  0  0
   14.1744   -2.7583   14.8821 H   0  0  0  0  0  0  0  0  0  0  0  0
   13.4495   -0.7158   13.9166 H   0  0  0  0  0  0  0  0  0  0  0  0
   14.7519   -0.3518   15.0337 H   0  0  0  0  0  0  0  0  0  0  0  0
   13.1798    1.3248   15.4672 H   0  0  0  0  0  0  0  0  0  0  0  0
   12.9536    0.2029   16.8042 H   0  0  0  0  0  0  0  0  0  0  0  0
   -2.1580    0.0061   12.5452 H   0  0  0  0  0  0  0  0  0  0  0  0
  1  2  1  0
  2  3  1  0
  3  4  2  0
  4  5  1  0
  5  6  2  0
  6  7  1  0
  7  8  1  0
  8  9  2  0
  9 10  1  0
 10 11  1  0
 11 12  1  0
 12 13  1  0
 13 14  1  0
 14 15  2  0
 14 16  1  0
 16 17  2  0
 17 18  1  0
 18 19  1  0
 19 20  2  0
 20 21  1  0
 21 22  1  0
 22 23  1  0
 23 24  1  0
 24 25  1  0
  7 26  2  0
 26  3  1  0
 10  6  1  0
 20 16  1  0
 25 19  1  0
  1 27  1  0
  1 28  1  0
  1 29  1  0
  4 30  1  0
  5 31  1  0
  8 32  1  0
  9 33  1  0
 11 34  1  0
 11 35  1  0
 12 36  1  0
 12 37  1  0
 13 38  1  0
 18 39  1  0
 21 40  1  0
 21 41  1  0
 22 42  1  0
 22 43  1  0
 23 44  1  0
 23 45  1  0
 24 46  1  0
 24 47  1  0
 25 48  1  0
 25 49  1  0
 26 50  1  0
M  END
>  <Energy>  (67) 
643.80692291686523

>  <compound_id>  (67) 
46195

>  <target_id>  (67) 
1

>  <reference_id>  (67) 
93

>  <inspiration_ids>  (67) 
[93, 127]

>  <energy_score>  (67) 
553.5379703314462

>  <distance_score>  (67) 
6.571558593738489

>  <path>  (67) 
/opt/xchem-fragalysis-2/maxwin/BulkDock/SCRATCH/511023/C46195-P93/C46195-P93.minimised.mol

>  <scratch_subdir>  (67) 
/opt/xchem-fragalysis-2/maxwin/BulkDock/SCRATCH/511023/C46195-P93

>  <fragmenstein_runtime>  (67) 
13.955202579498291

>  <fragmenstein_outcome>  (67) 
too moved

>  <fragmenstein_mode>  (67) 
expansion

>  <fragmenstein_error>  (67) 


$$$$
C46195-P127
     RDKit          3D

 50 53  0  0  0  0  0  0  0  0999 V2000
   -1.7385   -1.2001    9.3629 C   0  0  0  0  0  0  0  0  0  0  0  0
   -0.2543   -0.9771   10.7077 O   0  0  0  0  0  0  0  0  0  0  0  0
    0.7506   -0.5411   12.2122 C   0  0  0  0  0  0  0  0  0  0  0  0
    0.6370    0.2505   13.3941 C   0  0  0  0  0  0  0  0  0  0  0  0
    1.3004    1.4598   13.8496 C   0  0  0  0  0  0  0  0  0  0  0  0
    2.4339    1.7935   13.1420 C   0  0  0  0  0  0  0  0  0  0  0  0
    2.7768    1.0157   12.0254 C   0  0  0  0  0  0  0  0  0  0  0  0
    3.7498    1.8165   11.3599 C   0  0  0  0  0  0  0  0  0  0  0  0
    4.1189    2.8612   12.1991 C   0  0  0  0  0  0  0  0  0  0  0  0
    3.4944    2.6742   13.3992 N   0  0  0  0  0  0  0  0  0  0  0  0
    3.9465    3.1067   14.7406 C   0  0  0  0  0  0  0  0  0  0  0  0
    4.9053    4.3092   14.9890 C   0  0  0  0  0  0  0  0  0  0  0  0
    6.2931    4.0536   15.4285 N   0  0  0  0  0  0  0  0  0  0  0  0
    6.8341    3.0766   16.3554 C   0  0  0  0  0  0  0  0  0  0  0  0
    6.2826    2.2796   17.0606 O   0  0  0  0  0  0  0  0  0  0  0  0
    8.3571    3.0714   16.2794 C   0  0  0  0  0  0  0  0  0  0  0  0
    9.0171    4.1833   15.8869 N   0  0  0  0  0  0  0  0  0  0  0  0
   10.3179    3.8321   15.9076 N   0  0  0  0  0  0  0  0  0  0  0  0
   10.5398    2.5148   16.1686 C   0  0  0  0  0  0  0  0  0  0  0  0
    9.2984    1.9687   16.4222 C   0  0  0  0  0  0  0  0  0  0  0  0
    9.0946    0.5282   16.7339 C   0  0  0  0  0  0  0  0  0  0  0  0
    9.7262   -0.4790   15.7628 C   0  0  0  0  0  0  0  0  0  0  0  0
   11.2536   -0.5662   15.7922 C   0  0  0  0  0  0  0  0  0  0  0  0
   11.9778    0.6683   15.2544 C   0  0  0  0  0  0  0  0  0  0  0  0
   11.8945    1.8954   16.1646 C   0  0  0  0  0  0  0  0  0  0  0  0
    2.0763   -0.2899   11.7940 C   0  0  0  0  0  0  0  0  0  0  0  0
   -2.5842   -0.4499    9.4126 H   0  0  0  0  0  0  0  0  0  0  0  0
   -2.2971   -2.1330    9.2849 H   0  0  0  0  0  0  0  0  0  0  0  0
   -1.4207   -1.1433    8.3472 H   0  0  0  0  0  0  0  0  0  0  0  0
    0.9414   -0.3604   14.2654 H   0  0  0  0  0  0  0  0  0  0  0  0
    1.0913    1.8663   14.8334 H   0  0  0  0  0  0  0  0  0  0  0  0
    4.2008    1.6368   10.3938 H   0  0  0  0  0  0  0  0  0  0  0  0
    4.8727    3.6249   12.0589 H   0  0  0  0  0  0  0  0  0  0  0  0
    3.0077    3.3581   15.2517 H   0  0  0  0  0  0  0  0  0  0  0  0
    4.3432    2.2176   15.2288 H   0  0  0  0  0  0  0  0  0  0  0  0
    4.4790    4.9162   15.7964 H   0  0  0  0  0  0  0  0  0  0  0  0
    4.9669    4.9475   14.1024 H   0  0  0  0  0  0  0  0  0  0  0  0
    7.0575    4.6219   15.0603 H   0  0  0  0  0  0  0  0  0  0  0  0
   11.0064    4.5478   15.6989 H   0  0  0  0  0  0  0  0  0  0  0  0
    9.5436    0.3554   17.7003 H   0  0  0  0  0  0  0  0  0  0  0  0
    8.0351    0.3007   16.8615 H   0  0  0  0  0  0  0  0  0  0  0  0
    9.3396   -1.4721   16.0245 H   0  0  0  0  0  0  0  0  0  0  0  0
    9.4043   -0.2955   14.7356 H   0  0  0  0  0  0  0  0  0  0  0  0
   11.5470   -1.4216   15.1698 H   0  0  0  0  0  0  0  0  0  0  0  0
   11.6015   -0.7963   16.8045 H   0  0  0  0  0  0  0  0  0  0  0  0
   11.6072    0.9094   14.2499 H   0  0  0  0  0  0  0  0  0  0  0  0
   13.0379    0.4076   15.1420 H   0  0  0  0  0  0  0  0  0  0  0  0
   12.6301    2.6326   15.8188 H   0  0  0  0  0  0  0  0  0  0  0  0
   12.1781    1.6280   17.1893 H   0  0  0  0  0  0  0  0  0  0  0  0
    2.1231   -0.9097   10.9089 H   0  0  0  0  0  0  0  0  0  0  0  0
  1  2  1  0
  2  3  1  0
  3  4  2  0
  4  5  1  0
  5  6  2  0
  6  7  1  0
  7  8  1  0
  8  9  2  0
  9 10  1  0
 10 11  1  0
 11 12  1  0
 12 13  1  0
 13 14  1  0
 14 15  2  0
 14 16  1  0
 16 17  2  0
 17 18  1  0
 18 19  1  0
 19 20  2  0
 20 21  1  0
 21 22  1  0
 22 23  1  0
 23 24  1  0
 24 25  1  0
  7 26  2  0
 26  3  1  0
 10  6  1  0
 20 16  1  0
 25 19  1  0
  1 27  1  0
  1 28  1  0
  1 29  1  0
  4 30  1  0
  5 31  1  0
  8 32  1  0
  9 33  1  0
 11 34  1  0
 11 35  1  0
 12 36  1  0
 12 37  1  0
 13 38  1  0
 18 39  1  0
 21 40  1  0
 21 41  1  0
 22 42  1  0
 22 43  1  0
 23 44  1  0
 23 45  1  0
 24 46  1  0
 24 47  1  0
 25 48  1  0
 25 49  1  0
 26 50  1  0
M  END
>  <Energy>  (68) 
434.95553440472617

>  <compound_id>  (68) 
46195

>  <target_id>  (68) 
1

>  <reference_id>  (68) 
127

>  <inspiration_ids>  (68) 
[93, 127]

>  <energy_score>  (68) 
344.6865818193125

>  <distance_score>  (68) 
8.525590361222314

>  <path>  (68) 
/opt/xchem-fragalysis-2/maxwin/BulkDock/SCRATCH/511023/C46195-P127/C46195-P127.minimised.mol

>  <scratch_subdir>  (68) 
/opt/xchem-fragalysis-2/maxwin/BulkDock/SCRATCH/511023/C46195-P127

>  <fragmenstein_runtime>  (68) 
17.024785041809082

>  <fragmenstein_outcome>  (68) 
too moved

>  <fragmenstein_mode>  (68) 
expansion

>  <fragmenstein_error>  (68) 


$$$$
C46194-P93
     RDKit          3D

 44 47  0  0  0  0  0  0  0  0999 V2000
   -4.6443   -0.6994    8.3801 C   0  0  0  0  0  0  0  0  0  0  0  0
   -3.3436   -0.8376    7.8399 O   0  0  0  0  0  0  0  0  0  0  0  0
   -2.4021   -1.2514    8.6784 C   0  0  0  0  0  0  0  0  0  0  0  0
   -1.2679   -1.7637    8.3809 C   0  0  0  0  0  0  0  0  0  0  0  0
    0.6206   -2.1116    9.1326 C   0  0  0  0  0  0  0  0  0  0  0  0
    1.4867   -1.3092   10.4838 C   0  0  0  0  0  0  0  0  0  0  0  0
    0.4479   -0.5451   10.0608 C   0  0  0  0  0  0  0  0  0  0  0  0
    1.8231    0.7160    9.4916 C   0  0  0  0  0  0  0  0  0  0  0  0
    2.8607    1.0335   10.3852 C   0  0  0  0  0  0  0  0  0  0  0  0
    2.7724   -0.1478   11.3093 N   0  0  0  0  0  0  0  0  0  0  0  0
    4.6356   -0.5373   11.3641 C   0  0  0  0  0  0  0  0  0  0  0  0
    6.2454   -0.9966   12.4952 C   0  0  0  0  0  0  0  0  0  0  0  0
    7.5891   -0.9829   13.6724 N   0  0  0  0  0  0  0  0  0  0  0  0
    9.0169   -0.1670   13.6638 C   0  0  0  0  0  0  0  0  0  0  0  0
    9.4133    0.6749   12.8801 O   0  0  0  0  0  0  0  0  0  0  0  0
   10.1345   -0.5097   14.6565 C   0  0  0  0  0  0  0  0  0  0  0  0
   11.3229   -0.6045   13.8240 N   0  0  0  0  0  0  0  0  0  0  0  0
   11.8444   -1.8788   13.8466 N   0  0  0  0  0  0  0  0  0  0  0  0
   11.3166   -2.3754   14.9817 C   0  0  0  0  0  0  0  0  0  0  0  0
   10.8126   -1.2193   15.6665 C   0  0  0  0  0  0  0  0  0  0  0  0
   12.1653   -0.8387   16.4131 C   0  0  0  0  0  0  0  0  0  0  0  0
   13.0348   -2.1274   16.5142 C   0  0  0  0  0  0  0  0  0  0  0  0
   12.2135   -3.2156   15.8227 C   0  0  0  0  0  0  0  0  0  0  0  0
   -1.4210   -0.6262    9.3303 C   0  0  0  0  0  0  0  0  0  0  0  0
   -5.2295   -1.5933    8.1588 H   0  0  0  0  0  0  0  0  0  0  0  0
   -5.1362    0.1439    7.8867 H   0  0  0  0  0  0  0  0  0  0  0  0
   -4.6216   -0.4976    9.4450 H   0  0  0  0  0  0  0  0  0  0  0  0
   -1.3400   -1.6908    7.2547 H   0  0  0  0  0  0  0  0  0  0  0  0
    1.3184   -2.5198    8.3679 H   0  0  0  0  0  0  0  0  0  0  0  0
    1.8277    1.4247    8.6609 H   0  0  0  0  0  0  0  0  0  0  0  0
    3.6669    1.7508   10.4298 H   0  0  0  0  0  0  0  0  0  0  0  0
    4.8108    0.0197   10.4789 H   0  0  0  0  0  0  0  0  0  0  0  0
    4.1187   -1.5024   11.5022 H   0  0  0  0  0  0  0  0  0  0  0  0
    5.8729   -0.3585   13.2833 H   0  0  0  0  0  0  0  0  0  0  0  0
    6.9507   -0.7531   11.7022 H   0  0  0  0  0  0  0  0  0  0  0  0
    7.6019   -1.6735   14.4090 H   0  0  0  0  0  0  0  0  0  0  0  0
   11.4185   -0.0835   12.9609 H   0  0  0  0  0  0  0  0  0  0  0  0
   12.7083   -0.0588   15.8626 H   0  0  0  0  0  0  0  0  0  0  0  0
   12.0567   -0.4682   17.3900 H   0  0  0  0  0  0  0  0  0  0  0  0
   13.2787   -2.4039   17.5433 H   0  0  0  0  0  0  0  0  0  0  0  0
   13.9857   -1.9642   15.9915 H   0  0  0  0  0  0  0  0  0  0  0  0
   12.8614   -3.8813   15.2729 H   0  0  0  0  0  0  0  0  0  0  0  0
   11.6392   -3.8078   16.5387 H   0  0  0  0  0  0  0  0  0  0  0  0
   -1.9082    0.3870    9.1340 H   0  0  0  0  0  0  0  0  0  0  0  0
  1  2  1  0
  2  3  1  0
  3  4  2  0
  4  5  1  0
  5  6  2  0
  6  7  1  0
  7  8  1  0
  8  9  2  0
  9 10  1  0
 10 11  1  0
 11 12  1  0
 12 13  1  0
 13 14  1  0
 14 15  2  0
 14 16  1  0
 16 17  1  0
 17 18  1  0
 18 19  2  0
 19 20  1  0
 20 21  1  0
 21 22  1  0
 22 23  1  0
  7 24  2  0
 24  3  1  0
 10  6  1  0
 20 16  2  0
 23 19  1  0
  1 25  1  0
  1 26  1  0
  1 27  1  0
  4 28  1  0
  5 29  1  0
  8 30  1  0
  9 31  1  0
 11 32  1  0
 11 33  1  0
 12 34  1  0
 12 35  1  0
 13 36  1  0
 17 37  1  0
 21 38  1  0
 21 39  1  0
 22 40  1  0
 22 41  1  0
 23 42  1  0
 23 43  1  0
 24 44  1  0
M  END
>  <Energy>  (69) 
1126.0210967399553

>  <compound_id>  (69) 
46194

>  <target_id>  (69) 
1

>  <reference_id>  (69) 
93

>  <inspiration_ids>  (69) 
[93, 127]

>  <energy_score>  (69) 
1073.7025685852652

>  <distance_score>  (69) 
5.912629246801423

>  <path>  (69) 
/opt/xchem-fragalysis-2/maxwin/BulkDock/SCRATCH/511023/C46194-P93/C46194-P93.minimised.mol

>  <scratch_subdir>  (69) 
/opt/xchem-fragalysis-2/maxwin/BulkDock/SCRATCH/511023/C46194-P93

>  <fragmenstein_runtime>  (69) 
12.519201755523682

>  <fragmenstein_outcome>  (69) 
too moved

>  <fragmenstein_mode>  (69) 
expansion

>  <fragmenstein_error>  (69) 


$$$$
C46194-P127
     RDKit          3D

 44 47  0  0  0  0  0  0  0  0999 V2000
   -5.7888    0.1010    5.3923 C   0  0  0  0  0  0  0  0  0  0  0  0
   -4.6829   -0.0436    4.4995 O   0  0  0  0  0  0  0  0  0  0  0  0
   -3.4690   -0.4070    5.0437 C   0  0  0  0  0  0  0  0  0  0  0  0
   -3.3047   -0.7891    6.4000 C   0  0  0  0  0  0  0  0  0  0  0  0
   -2.0440   -1.0949    6.9994 C   0  0  0  0  0  0  0  0  0  0  0  0
   -0.7588   -1.1013    6.2140 C   0  0  0  0  0  0  0  0  0  0  0  0
   -0.9313   -0.8852    4.5226 C   0  0  0  0  0  0  0  0  0  0  0  0
    0.4516   -1.2104    3.8259 C   0  0  0  0  0  0  0  0  0  0  0  0
    1.3655   -1.9332    4.7480 C   0  0  0  0  0  0  0  0  0  0  0  0
    0.9576   -1.5889    6.5369 N   0  0  0  0  0  0  0  0  0  0  0  0
    2.0601   -0.5336    7.8104 C   0  0  0  0  0  0  0  0  0  0  0  0
    2.2677    1.0729    9.1645 C   0  0  0  0  0  0  0  0  0  0  0  0
    3.1463    0.6122   10.8671 N   0  0  0  0  0  0  0  0  0  0  0  0
    4.9282    0.3931   11.3017 C   0  0  0  0  0  0  0  0  0  0  0  0
    5.7466    0.6591   10.4944 O   0  0  0  0  0  0  0  0  0  0  0  0
    5.7804   -0.4169   12.8216 C   0  0  0  0  0  0  0  0  0  0  0  0
    6.6824   -1.5279   12.4558 N   0  0  0  0  0  0  0  0  0  0  0  0
    6.8424   -2.5689   13.2842 N   0  0  0  0  0  0  0  0  0  0  0  0
    6.9334   -1.8826   14.3819 C   0  0  0  0  0  0  0  0  0  0  0  0
    6.0401   -0.8065   14.3609 C   0  0  0  0  0  0  0  0  0  0  0  0
    6.1225   -0.2279   15.8315 C   0  0  0  0  0  0  0  0  0  0  0  0
    7.6026   -0.6277   16.2158 C   0  0  0  0  0  0  0  0  0  0  0  0
    7.8022   -2.0153   15.5338 C   0  0  0  0  0  0  0  0  0  0  0  0
   -2.3508   -0.3642    4.1184 C   0  0  0  0  0  0  0  0  0  0  0  0
   -5.5721    0.8356    6.1749 H   0  0  0  0  0  0  0  0  0  0  0  0
   -6.0749   -0.8663    5.8175 H   0  0  0  0  0  0  0  0  0  0  0  0
   -6.6374    0.4734    4.8106 H   0  0  0  0  0  0  0  0  0  0  0  0
   -4.1631   -0.8408    7.0662 H   0  0  0  0  0  0  0  0  0  0  0  0
   -2.0319   -1.3530    8.0561 H   0  0  0  0  0  0  0  0  0  0  0  0
    0.6712   -1.0525    2.7753 H   0  0  0  0  0  0  0  0  0  0  0  0
    2.3310   -2.3574    4.5562 H   0  0  0  0  0  0  0  0  0  0  0  0
    1.7126   -1.3468    8.4932 H   0  0  0  0  0  0  0  0  0  0  0  0
    2.9281   -0.8590    7.3630 H   0  0  0  0  0  0  0  0  0  0  0  0
    1.5201    1.8361    9.2047 H   0  0  0  0  0  0  0  0  0  0  0  0
    3.0644    1.6858    8.6764 H   0  0  0  0  0  0  0  0  0  0  0  0
    2.5885    0.4216   11.6908 H   0  0  0  0  0  0  0  0  0  0  0  0
    7.1911   -1.5437   11.5838 H   0  0  0  0  0  0  0  0  0  0  0  0
    5.9188    0.8428   15.9262 H   0  0  0  0  0  0  0  0  0  0  0  0
    5.5010   -0.7607   16.5525 H   0  0  0  0  0  0  0  0  0  0  0  0
    7.7747   -0.5806   17.2906 H   0  0  0  0  0  0  0  0  0  0  0  0
    8.3215    0.0800   15.7858 H   0  0  0  0  0  0  0  0  0  0  0  0
    8.8513   -2.1916   15.2872 H   0  0  0  0  0  0  0  0  0  0  0  0
    7.3876   -2.8607   16.0644 H   0  0  0  0  0  0  0  0  0  0  0  0
   -2.4975   -0.0503    3.0861 H   0  0  0  0  0  0  0  0  0  0  0  0
  1  2  1  0
  2  3  1  0
  3  4  2  0
  4  5  1  0
  5  6  2  0
  6  7  1  0
  7  8  1  0
  8  9  2  0
  9 10  1  0
 10 11  1  0
 11 12  1  0
 12 13  1  0
 13 14  1  0
 14 15  2  0
 14 16  1  0
 16 17  1  0
 17 18  1  0
 18 19  2  0
 19 20  1  0
 20 21  1  0
 21 22  1  0
 22 23  1  0
  7 24  2  0
 24  3  1  0
 10  6  1  0
 20 16  2  0
 23 19  1  0
  1 25  1  0
  1 26  1  0
  1 27  1  0
  4 28  1  0
  5 29  1  0
  8 30  1  0
  9 31  1  0
 11 32  1  0
 11 33  1  0
 12 34  1  0
 12 35  1  0
 13 36  1  0
 17 37  1  0
 21 38  1  0
 21 39  1  0
 22 40  1  0
 22 41  1  0
 23 42  1  0
 23 43  1  0
 24 44  1  0
M  END
>  <Energy>  (70) 
693.16719976445279

>  <compound_id>  (70) 
46194

>  <target_id>  (70) 
1

>  <reference_id>  (70) 
127

>  <inspiration_ids>  (70) 
[93, 127]

>  <energy_score>  (70) 
640.8486716097593

>  <distance_score>  (70) 
7.744492833994527

>  <path>  (70) 
/opt/xchem-fragalysis-2/maxwin/BulkDock/SCRATCH/511023/C46194-P127/C46194-P127.minimised.mol

>  <scratch_subdir>  (70) 
/opt/xchem-fragalysis-2/maxwin/BulkDock/SCRATCH/511023/C46194-P127

>  <fragmenstein_runtime>  (70) 
13.313552618026733

>  <fragmenstein_outcome>  (70) 
too moved

>  <fragmenstein_mode>  (70) 
expansion

>  <fragmenstein_error>  (70) 


$$$$
C46195-P93
     RDKit          3D

 50 53  0  0  0  0  0  0  0  0999 V2000
   -4.1288   -0.5010    8.4212 C   0  0  0  0  0  0  0  0  0  0  0  0
   -3.4902    0.1808    9.4961 O   0  0  0  0  0  0  0  0  0  0  0  0
   -2.2256   -0.1709    9.9123 C   0  0  0  0  0  0  0  0  0  0  0  0
   -1.3784   -0.8743    9.2884 C   0  0  0  0  0  0  0  0  0  0  0  0
    0.3548   -1.1425   10.1204 C   0  0  0  0  0  0  0  0  0  0  0  0
    1.2648   -0.9360   11.3893 C   0  0  0  0  0  0  0  0  0  0  0  0
    0.1902   -0.4869   12.3989 C   0  0  0  0  0  0  0  0  0  0  0  0
    1.1063    0.1917   13.5128 C   0  0  0  0  0  0  0  0  0  0  0  0
    2.2754    0.7687   12.9074 C   0  0  0  0  0  0  0  0  0  0  0  0
    2.7125   -0.0305   11.7285 N   0  0  0  0  0  0  0  0  0  0  0  0
    4.5144   -0.3620   11.2974 C   0  0  0  0  0  0  0  0  0  0  0  0
    6.0351   -0.9214   12.4381 C   0  0  0  0  0  0  0  0  0  0  0  0
    7.3510   -0.6454   12.9894 N   0  0  0  0  0  0  0  0  0  0  0  0
    7.9556   -1.0171   14.3033 C   0  0  0  0  0  0  0  0  0  0  0  0
    7.5291   -1.7028   15.1909 O   0  0  0  0  0  0  0  0  0  0  0  0
    9.3079   -0.3391   14.6539 C   0  0  0  0  0  0  0  0  0  0  0  0
    9.3351    0.9909   14.8877 N   0  0  0  0  0  0  0  0  0  0  0  0
   10.5847    1.2690   15.2647 N   0  0  0  0  0  0  0  0  0  0  0  0
   11.3981    0.1864   15.3457 C   0  0  0  0  0  0  0  0  0  0  0  0
   10.6233   -0.9020   14.9839 C   0  0  0  0  0  0  0  0  0  0  0  0
   11.1454   -2.3092   14.8694 C   0  0  0  0  0  0  0  0  0  0  0  0
   12.2545   -2.6601   15.8703 C   0  0  0  0  0  0  0  0  0  0  0  0
   13.6452   -2.0949   15.5683 C   0  0  0  0  0  0  0  0  0  0  0  0
   13.7086   -0.6883   14.9830 C   0  0  0  0  0  0  0  0  0  0  0  0
   12.8336    0.3148   15.7213 C   0  0  0  0  0  0  0  0  0  0  0  0
   -1.5068   -0.3767   11.7680 C   0  0  0  0  0  0  0  0  0  0  0  0
   -3.4698   -0.7360    7.5860 H   0  0  0  0  0  0  0  0  0  0  0  0
   -4.5873   -1.4153    8.7791 H   0  0  0  0  0  0  0  0  0  0  0  0
   -4.9360    0.1377    8.0505 H   0  0  0  0  0  0  0  0  0  0  0  0
   -1.6701   -1.3274    8.3322 H   0  0  0  0  0  0  0  0  0  0  0  0
    1.0192   -1.7657    9.4816 H   0  0  0  0  0  0  0  0  0  0  0  0
    0.7137    0.6823   14.3993 H   0  0  0  0  0  0  0  0  0  0  0  0
    2.9355    1.5702   13.2211 H   0  0  0  0  0  0  0  0  0  0  0  0
    4.1134   -1.3573   11.4304 H   0  0  0  0  0  0  0  0  0  0  0  0
    4.4792    0.3375   10.4560 H   0  0  0  0  0  0  0  0  0  0  0  0
    5.7125   -0.5000   13.3993 H   0  0  0  0  0  0  0  0  0  0  0  0
    6.0904   -2.0084   12.4641 H   0  0  0  0  0  0  0  0  0  0  0  0
    8.0112   -0.1297   12.4616 H   0  0  0  0  0  0  0  0  0  0  0  0
   10.8214    2.2386   15.4511 H   0  0  0  0  0  0  0  0  0  0  0  0
   10.3142   -3.0042   15.0069 H   0  0  0  0  0  0  0  0  0  0  0  0
   11.5325   -2.4758   13.8575 H   0  0  0  0  0  0  0  0  0  0  0  0
   11.9726   -2.3241   16.8671 H   0  0  0  0  0  0  0  0  0  0  0  0
   12.3407   -3.7516   15.9348 H   0  0  0  0  0  0  0  0  0  0  0  0
   14.2269   -2.1199   16.4992 H   0  0  0  0  0  0  0  0  0  0  0  0
   14.1744   -2.7583   14.8821 H   0  0  0  0  0  0  0  0  0  0  0  0
   13.4495   -0.7158   13.9166 H   0  0  0  0  0  0  0  0  0  0  0  0
   14.7519   -0.3518   15.0337 H   0  0  0  0  0  0  0  0  0  0  0  0
   13.1798    1.3248   15.4672 H   0  0  0  0  0  0  0  0  0  0  0  0
   12.9536    0.2029   16.8042 H   0  0  0  0  0  0  0  0  0  0  0  0
   -2.1580    0.0061   12.5452 H   0  0  0  0  0  0  0  0  0  0  0  0
  1  2  1  0
  2  3  1  0
  3  4  2  0
  4  5  1  0
  5  6  2  0
  6  7  1  0
  7  8  1  0
  8  9  2  0
  9 10  1  0
 10 11  1  0
 11 12  1  0
 12 13  1  0
 13 14  1  0
 14 15  2  0
 14 16  1  0
 16 17  2  0
 17 18  1  0
 18 19  1  0
 19 20  2  0
 20 21  1  0
 21 22  1  0
 22 23  1  0
 23 24  1  0
 24 25  1  0
  7 26  2  0
 26  3  1  0
 10  6  1  0
 20 16  1  0
 25 19  1  0
  1 27  1  0
  1 28  1  0
  1 29  1  0
  4 30  1  0
  5 31  1  0
  8 32  1  0
  9 33  1  0
 11 34  1  0
 11 35  1  0
 12 36  1  0
 12 37  1  0
 13 38  1  0
 18 39  1  0
 21 40  1  0
 21 41  1  0
 22 42  1  0
 22 43  1  0
 23 44  1  0
 23 45  1  0
 24 46  1  0
 24 47  1  0
 25 48  1  0
 25 49  1  0
 26 50  1  0
M  END
>  <Energy>  (71) 
643.80692291686523

>  <compound_id>  (71) 
46195

>  <target_id>  (71) 
1

>  <reference_id>  (71) 
93

>  <inspiration_ids>  (71) 
[93, 127]

>  <energy_score>  (71) 
553.5379703314462

>  <distance_score>  (71) 
6.571558593738489

>  <path>  (71) 
/opt/xchem-fragalysis-2/maxwin/BulkDock/SCRATCH/511023/C46195-P93/C46195-P93.minimised.mol

>  <scratch_subdir>  (71) 
/opt/xchem-fragalysis-2/maxwin/BulkDock/SCRATCH/511023/C46195-P93

>  <fragmenstein_runtime>  (71) 
14.924924612045288

>  <fragmenstein_outcome>  (71) 
too moved

>  <fragmenstein_mode>  (71) 
expansion

>  <fragmenstein_error>  (71) 


$$$$
C46195-P127
     RDKit          3D

 50 53  0  0  0  0  0  0  0  0999 V2000
   -1.7385   -1.2001    9.3629 C   0  0  0  0  0  0  0  0  0  0  0  0
   -0.2543   -0.9771   10.7077 O   0  0  0  0  0  0  0  0  0  0  0  0
    0.7506   -0.5411   12.2122 C   0  0  0  0  0  0  0  0  0  0  0  0
    0.6370    0.2505   13.3941 C   0  0  0  0  0  0  0  0  0  0  0  0
    1.3004    1.4598   13.8496 C   0  0  0  0  0  0  0  0  0  0  0  0
    2.4339    1.7935   13.1420 C   0  0  0  0  0  0  0  0  0  0  0  0
    2.7768    1.0157   12.0254 C   0  0  0  0  0  0  0  0  0  0  0  0
    3.7498    1.8165   11.3599 C   0  0  0  0  0  0  0  0  0  0  0  0
    4.1189    2.8612   12.1991 C   0  0  0  0  0  0  0  0  0  0  0  0
    3.4944    2.6742   13.3992 N   0  0  0  0  0  0  0  0  0  0  0  0
    3.9465    3.1067   14.7406 C   0  0  0  0  0  0  0  0  0  0  0  0
    4.9053    4.3092   14.9890 C   0  0  0  0  0  0  0  0  0  0  0  0
    6.2931    4.0536   15.4285 N   0  0  0  0  0  0  0  0  0  0  0  0
    6.8341    3.0766   16.3554 C   0  0  0  0  0  0  0  0  0  0  0  0
    6.2826    2.2796   17.0606 O   0  0  0  0  0  0  0  0  0  0  0  0
    8.3571    3.0714   16.2794 C   0  0  0  0  0  0  0  0  0  0  0  0
    9.0171    4.1833   15.8869 N   0  0  0  0  0  0  0  0  0  0  0  0
   10.3179    3.8321   15.9076 N   0  0  0  0  0  0  0  0  0  0  0  0
   10.5398    2.5148   16.1686 C   0  0  0  0  0  0  0  0  0  0  0  0
    9.2984    1.9687   16.4222 C   0  0  0  0  0  0  0  0  0  0  0  0
    9.0946    0.5282   16.7339 C   0  0  0  0  0  0  0  0  0  0  0  0
    9.7262   -0.4790   15.7628 C   0  0  0  0  0  0  0  0  0  0  0  0
   11.2536   -0.5662   15.7922 C   0  0  0  0  0  0  0  0  0  0  0  0
   11.9778    0.6683   15.2544 C   0  0  0  0  0  0  0  0  0  0  0  0
   11.8945    1.8954   16.1646 C   0  0  0  0  0  0  0  0  0  0  0  0
    2.0763   -0.2899   11.7940 C   0  0  0  0  0  0  0  0  0  0  0  0
   -2.5842   -0.4499    9.4126 H   0  0  0  0  0  0  0  0  0  0  0  0
   -2.2971   -2.1330    9.2849 H   0  0  0  0  0  0  0  0  0  0  0  0
   -1.4207   -1.1433    8.3472 H   0  0  0  0  0  0  0  0  0  0  0  0
    0.9414   -0.3604   14.2654 H   0  0  0  0  0  0  0  0  0  0  0  0
    1.0913    1.8663   14.8334 H   0  0  0  0  0  0  0  0  0  0  0  0
    4.2008    1.6368   10.3938 H   0  0  0  0  0  0  0  0  0  0  0  0
    4.8727    3.6249   12.0589 H   0  0  0  0  0  0  0  0  0  0  0  0
    3.0077    3.3581   15.2517 H   0  0  0  0  0  0  0  0  0  0  0  0
    4.3432    2.2176   15.2288 H   0  0  0  0  0  0  0  0  0  0  0  0
    4.4790    4.9162   15.7964 H   0  0  0  0  0  0  0  0  0  0  0  0
    4.9669    4.9475   14.1024 H   0  0  0  0  0  0  0  0  0  0  0  0
    7.0575    4.6219   15.0603 H   0  0  0  0  0  0  0  0  0  0  0  0
   11.0064    4.5478   15.6989 H   0  0  0  0  0  0  0  0  0  0  0  0
    9.5436    0.3554   17.7003 H   0  0  0  0  0  0  0  0  0  0  0  0
    8.0351    0.3007   16.8615 H   0  0  0  0  0  0  0  0  0  0  0  0
    9.3396   -1.4721   16.0245 H   0  0  0  0  0  0  0  0  0  0  0  0
    9.4043   -0.2955   14.7356 H   0  0  0  0  0  0  0  0  0  0  0  0
   11.5470   -1.4216   15.1698 H   0  0  0  0  0  0  0  0  0  0  0  0
   11.6015   -0.7963   16.8045 H   0  0  0  0  0  0  0  0  0  0  0  0
   11.6072    0.9094   14.2499 H   0  0  0  0  0  0  0  0  0  0  0  0
   13.0379    0.4076   15.1420 H   0  0  0  0  0  0  0  0  0  0  0  0
   12.6301    2.6326   15.8188 H   0  0  0  0  0  0  0  0  0  0  0  0
   12.1781    1.6280   17.1893 H   0  0  0  0  0  0  0  0  0  0  0  0
    2.1231   -0.9097   10.9089 H   0  0  0  0  0  0  0  0  0  0  0  0
  1  2  1  0
  2  3  1  0
  3  4  2  0
  4  5  1  0
  5  6  2  0
  6  7  1  0
  7  8  1  0
  8  9  2  0
  9 10  1  0
 10 11  1  0
 11 12  1  0
 12 13  1  0
 13 14  1  0
 14 15  2  0
 14 16  1  0
 16 17  2  0
 17 18  1  0
 18 19  1  0
 19 20  2  0
 20 21  1  0
 21 22  1  0
 22 23  1  0
 23 24  1  0
 24 25  1  0
  7 26  2  0
 26  3  1  0
 10  6  1  0
 20 16  1  0
 25 19  1  0
  1 27  1  0
  1 28  1  0
  1 29  1  0
  4 30  1  0
  5 31  1  0
  8 32  1  0
  9 33  1  0
 11 34  1  0
 11 35  1  0
 12 36  1  0
 12 37  1  0
 13 38  1  0
 18 39  1  0
 21 40  1  0
 21 41  1  0
 22 42  1  0
 22 43  1  0
 23 44  1  0
 23 45  1  0
 24 46  1  0
 24 47  1  0
 25 48  1  0
 25 49  1  0
 26 50  1  0
M  END
>  <Energy>  (72) 
434.95553440472617

>  <compound_id>  (72) 
46195

>  <target_id>  (72) 
1

>  <reference_id>  (72) 
127

>  <inspiration_ids>  (72) 
[93, 127]

>  <energy_score>  (72) 
344.6865818193125

>  <distance_score>  (72) 
8.525590361222314

>  <path>  (72) 
/opt/xchem-fragalysis-2/maxwin/BulkDock/SCRATCH/511023/C46195-P127/C46195-P127.minimised.mol

>  <scratch_subdir>  (72) 
/opt/xchem-fragalysis-2/maxwin/BulkDock/SCRATCH/511023/C46195-P127

>  <fragmenstein_runtime>  (72) 
17.598846912384033

>  <fragmenstein_outcome>  (72) 
too moved

>  <fragmenstein_mode>  (72) 
expansion

>  <fragmenstein_error>  (72) 


$$$$
C46197-P93
     RDKit          3D

 50 53  0  0  0  0  0  0  0  0999 V2000
   -1.4168   -1.7369    8.3326 C   0  0  0  0  0  0  0  0  0  0  0  0
   -2.1812   -0.8686    8.9719 O   0  0  0  0  0  0  0  0  0  0  0  0
   -1.2171    0.0513    9.1060 C   0  0  0  0  0  0  0  0  0  0  0  0
   -2.0448    1.6634    8.5941 C   0  0  0  0  0  0  0  0  0  0  0  0
   -1.2567    3.3193    8.4427 C   0  0  0  0  0  0  0  0  0  0  0  0
    0.4550    3.5966    9.0887 C   0  0  0  0  0  0  0  0  0  0  0  0
    1.4949    2.1172    9.4958 C   0  0  0  0  0  0  0  0  0  0  0  0
    0.8917    0.2524    9.5970 C   0  0  0  0  0  0  0  0  0  0  0  0
    2.2116    1.1183    8.5240 C   0  0  0  0  0  0  0  0  0  0  0  0
    3.3760    1.7998    9.0023 C   0  0  0  0  0  0  0  0  0  0  0  0
    2.8221    2.2274   10.1167 N   0  0  0  0  0  0  0  0  0  0  0  0
    3.3955    3.2890   10.9812 C   0  0  0  0  0  0  0  0  0  0  0  0
    3.3180    3.0486   12.5213 C   0  0  0  0  0  0  0  0  0  0  0  0
    4.3958    3.6559   13.3387 N   0  0  0  0  0  0  0  0  0  0  0  0
    4.6194    3.6517   14.7836 C   0  0  0  0  0  0  0  0  0  0  0  0
    3.9455    3.2250   15.6736 O   0  0  0  0  0  0  0  0  0  0  0  0
    5.9595    4.1921   15.1318 C   0  0  0  0  0  0  0  0  0  0  0  0
    6.5319    5.2885   14.5381 N   0  0  0  0  0  0  0  0  0  0  0  0
    7.8688    5.3293   14.6487 N   0  0  0  0  0  0  0  0  0  0  0  0
    8.1507    4.3788   15.5407 C   0  0  0  0  0  0  0  0  0  0  0  0
    6.9752    3.7145   15.9929 C   0  0  0  0  0  0  0  0  0  0  0  0
    6.9732    2.6177   17.0196 C   0  0  0  0  0  0  0  0  0  0  0  0
    7.8834    1.3994   16.7661 C   0  0  0  0  0  0  0  0  0  0  0  0
    9.3867    1.6432   16.6331 C   0  0  0  0  0  0  0  0  0  0  0  0
    9.8913    2.5848   15.5501 C   0  0  0  0  0  0  0  0  0  0  0  0
    9.5681    4.0477   15.8595 C   0  0  0  0  0  0  0  0  0  0  0  0
   -0.0577   -2.3637    8.8058 H   0  0  0  0  0  0  0  0  0  0  0  0
   -2.1670   -2.4445    7.9649 H   0  0  0  0  0  0  0  0  0  0  0  0
   -0.0013   -1.9910    8.9403 H   0  0  0  0  0  0  0  0  0  0  0  0
   -3.1376    1.6207    8.6911 H   0  0  0  0  0  0  0  0  0  0  0  0
   -1.8720    4.1950    8.2264 H   0  0  0  0  0  0  0  0  0  0  0  0
    0.9320    4.5698    9.1306 H   0  0  0  0  0  0  0  0  0  0  0  0
    2.4592    0.7239    7.5627 H   0  0  0  0  0  0  0  0  0  0  0  0
    4.3347    2.0454    8.5592 H   0  0  0  0  0  0  0  0  0  0  0  0
    2.8665    4.2154   10.7312 H   0  0  0  0  0  0  0  0  0  0  0  0
    4.4353    3.4226   10.6659 H   0  0  0  0  0  0  0  0  0  0  0  0
    3.3462    1.9780   12.7385 H   0  0  0  0  0  0  0  0  0  0  0  0
    2.3675    3.4209   12.9185 H   0  0  0  0  0  0  0  0  0  0  0  0
    5.2151    4.0271   12.8782 H   0  0  0  0  0  0  0  0  0  0  0  0
    6.0826    5.9744   13.9413 H   0  0  0  0  0  0  0  0  0  0  0  0
    7.2538    3.0644   17.9826 H   0  0  0  0  0  0  0  0  0  0  0  0
    5.9479    2.2512   17.1487 H   0  0  0  0  0  0  0  0  0  0  0  0
    7.7315    0.7238   17.6164 H   0  0  0  0  0  0  0  0  0  0  0  0
    7.5419    0.8020   15.9181 H   0  0  0  0  0  0  0  0  0  0  0  0
    9.8649    0.6687   16.4794 H   0  0  0  0  0  0  0  0  0  0  0  0
    9.7529    2.0394   17.5786 H   0  0  0  0  0  0  0  0  0  0  0  0
   10.9840    2.4874   15.5109 H   0  0  0  0  0  0  0  0  0  0  0  0
    9.5179    2.2862   14.5660 H   0  0  0  0  0  0  0  0  0  0  0  0
   10.2326    4.6819   15.2586 H   0  0  0  0  0  0  0  0  0  0  0  0
    9.7776    4.2854   16.9091 H   0  0  0  0  0  0  0  0  0  0  0  0
  1  2  1  0
  2  3  1  0
  3  4  2  0
  4  5  1  0
  5  6  2  0
  6  7  1  0
  7  8  2  0
  8  9  1  0
  9 10  2  0
 10 11  1  0
 11 12  1  0
 12 13  1  0
 13 14  1  0
 14 15  1  0
 15 16  2  0
 15 17  1  0
 17 18  1  0
 18 19  1  0
 19 20  2  0
 20 21  1  0
 21 22  1  0
 22 23  1  0
 23 24  1  0
 24 25  1  0
 25 26  1  0
  8  3  1  0
 21 17  2  0
 11  7  1  0
 26 20  1  0
  1 27  1  0
  1 28  1  0
  1 29  1  0
  4 30  1  0
  5 31  1  0
  6 32  1  0
  9 33  1  0
 10 34  1  0
 12 35  1  0
 12 36  1  0
 13 37  1  0
 13 38  1  0
 14 39  1  0
 18 40  1  0
 22 41  1  0
 22 42  1  0
 23 43  1  0
 23 44  1  0
 24 45  1  0
 24 46  1  0
 25 47  1  0
 25 48  1  0
 26 49  1  0
 26 50  1  0
M  END
>  <Energy>  (73) 
1055.8264241107827

>  <compound_id>  (73) 
46197

>  <target_id>  (73) 
1

>  <reference_id>  (73) 
93

>  <inspiration_ids>  (73) 
[93, 127]

>  <energy_score>  (73) 
1005.6307832909604

>  <distance_score>  (73) 
8.614333934434148

>  <path>  (73) 
/opt/xchem-fragalysis-2/maxwin/BulkDock/SCRATCH/511023/C46197-P93/C46197-P93.minimised.mol

>  <scratch_subdir>  (73) 
/opt/xchem-fragalysis-2/maxwin/BulkDock/SCRATCH/511023/C46197-P93

>  <fragmenstein_runtime>  (73) 
16.971027612686157

>  <fragmenstein_outcome>  (73) 
too moved

>  <fragmenstein_mode>  (73) 
expansion

>  <fragmenstein_error>  (73) 


$$$$
C46197-P127
     RDKit          3D

 50 53  0  0  0  0  0  0  0  0999 V2000
   -4.4554   -0.1435    8.6003 C   0  0  0  0  0  0  0  0  0  0  0  0
   -3.2204   -0.1278    9.3567 O   0  0  0  0  0  0  0  0  0  0  0  0
   -1.8418   -0.2399    8.6418 C   0  0  0  0  0  0  0  0  0  0  0  0
   -2.2912   -0.5123    7.3573 C   0  0  0  0  0  0  0  0  0  0  0  0
   -2.1987   -1.7871    7.4624 C   0  0  0  0  0  0  0  0  0  0  0  0
   -1.3167   -1.9912    8.5893 C   0  0  0  0  0  0  0  0  0  0  0  0
    0.5512   -1.9625    9.2194 C   0  0  0  0  0  0  0  0  0  0  0  0
   -0.2023   -0.8381    9.6688 C   0  0  0  0  0  0  0  0  0  0  0  0
    1.4761   -0.4844    9.5991 C   0  0  0  0  0  0  0  0  0  0  0  0
    1.8825   -0.7968   10.9895 C   0  0  0  0  0  0  0  0  0  0  0  0
    1.7968   -1.9538   10.5224 N   0  0  0  0  0  0  0  0  0  0  0  0
    3.3383   -2.7971   11.1540 C   0  0  0  0  0  0  0  0  0  0  0  0
    3.8381   -3.7874   12.6563 C   0  0  0  0  0  0  0  0  0  0  0  0
    5.1523   -3.5038   13.8447 N   0  0  0  0  0  0  0  0  0  0  0  0
    6.4388   -2.4982   13.7913 C   0  0  0  0  0  0  0  0  0  0  0  0
    6.8009   -1.7924   12.8890 O   0  0  0  0  0  0  0  0  0  0  0  0
    7.3939   -2.3366   15.0203 C   0  0  0  0  0  0  0  0  0  0  0  0
    6.9680   -1.4274   15.9537 N   0  0  0  0  0  0  0  0  0  0  0  0
    7.9086   -0.6993   16.5949 N   0  0  0  0  0  0  0  0  0  0  0  0
    9.0204   -1.0339   15.9502 C   0  0  0  0  0  0  0  0  0  0  0  0
    8.8334   -2.2606   15.2435 C   0  0  0  0  0  0  0  0  0  0  0  0
   10.0658   -3.0974   14.8950 C   0  0  0  0  0  0  0  0  0  0  0  0
   11.3616   -2.8299   15.6797 C   0  0  0  0  0  0  0  0  0  0  0  0
   12.1286   -1.6104   15.1734 C   0  0  0  0  0  0  0  0  0  0  0  0
   11.2743   -0.3579   14.9951 C   0  0  0  0  0  0  0  0  0  0  0  0
   10.2443   -0.1900   16.1061 C   0  0  0  0  0  0  0  0  0  0  0  0
   -4.5557    0.7691    8.0043 H   0  0  0  0  0  0  0  0  0  0  0  0
   -5.3016   -0.1843    9.2747 H   0  0  0  0  0  0  0  0  0  0  0  0
   -4.5955   -1.0474    8.0024 H   0  0  0  0  0  0  0  0  0  0  0  0
   -3.0657   -0.0228    6.7954 H   0  0  0  0  0  0  0  0  0  0  0  0
   -3.0808   -2.4037    7.2873 H   0  0  0  0  0  0  0  0  0  0  0  0
   -2.1701   -2.1487    9.3120 H   0  0  0  0  0  0  0  0  0  0  0  0
    1.7643    0.4886    9.1584 H   0  0  0  0  0  0  0  0  0  0  0  0
    2.4439   -0.2188   11.7231 H   0  0  0  0  0  0  0  0  0  0  0  0
    3.6064   -3.2421   10.2075 H   0  0  0  0  0  0  0  0  0  0  0  0
    3.8714   -1.9658   11.5031 H   0  0  0  0  0  0  0  0  0  0  0  0
    4.1234   -4.7638   12.2504 H   0  0  0  0  0  0  0  0  0  0  0  0
    2.9601   -3.9146   13.2962 H   0  0  0  0  0  0  0  0  0  0  0  0
    5.0709   -3.8955   14.7742 H   0  0  0  0  0  0  0  0  0  0  0  0
    6.0183   -1.0905   16.0204 H   0  0  0  0  0  0  0  0  0  0  0  0
   10.3730   -3.0512   13.8587 H   0  0  0  0  0  0  0  0  0  0  0  0
    9.8169   -4.1286   15.1261 H   0  0  0  0  0  0  0  0  0  0  0  0
   12.0195   -3.7022   15.5739 H   0  0  0  0  0  0  0  0  0  0  0  0
   11.1657   -2.7359   16.7497 H   0  0  0  0  0  0  0  0  0  0  0  0
   12.9391   -1.3978   15.8818 H   0  0  0  0  0  0  0  0  0  0  0  0
   12.6126   -1.8458   14.2176 H   0  0  0  0  0  0  0  0  0  0  0  0
   10.7843   -0.3707   14.0142 H   0  0  0  0  0  0  0  0  0  0  0  0
   11.9446    0.5105   14.9891 H   0  0  0  0  0  0  0  0  0  0  0  0
    9.9352    0.8630   16.1280 H   0  0  0  0  0  0  0  0  0  0  0  0
   10.7127   -0.4021   17.0620 H   0  0  0  0  0  0  0  0  0  0  0  0
  1  2  1  0
  2  3  1  0
  3  4  2  0
  4  5  1  0
  5  6  2  0
  6  7  1  0
  7  8  2  0
  8  9  1  0
  9 10  2  0
 10 11  1  0
 11 12  1  0
 12 13  1  0
 13 14  1  0
 14 15  1  0
 15 16  2  0
 15 17  1  0
 17 18  1  0
 18 19  1  0
 19 20  2  0
 20 21  1  0
 21 22  1  0
 22 23  1  0
 23 24  1  0
 24 25  1  0
 25 26  1  0
  8  3  1  0
 21 17  2  0
 11  7  1  0
 26 20  1  0
  1 27  1  0
  1 28  1  0
  1 29  1  0
  4 30  1  0
  5 31  1  0
  6 32  1  0
  9 33  1  0
 10 34  1  0
 12 35  1  0
 12 36  1  0
 13 37  1  0
 13 38  1  0
 14 39  1  0
 18 40  1  0
 22 41  1  0
 22 42  1  0
 23 43  1  0
 23 44  1  0
 24 45  1  0
 24 46  1  0
 25 47  1  0
 25 48  1  0
 26 49  1  0
 26 50  1  0
M  END
>  <Energy>  (74) 
962.79828671972325

>  <compound_id>  (74) 
46197

>  <target_id>  (74) 
1

>  <reference_id>  (74) 
127

>  <inspiration_ids>  (74) 
[93, 127]

>  <energy_score>  (74) 
912.6026458999038

>  <distance_score>  (74) 
6.684926270005542

>  <path>  (74) 
/opt/xchem-fragalysis-2/maxwin/BulkDock/SCRATCH/511023/C46197-P127/C46197-P127.minimised.mol

>  <scratch_subdir>  (74) 
/opt/xchem-fragalysis-2/maxwin/BulkDock/SCRATCH/511023/C46197-P127

>  <fragmenstein_runtime>  (74) 
17.525140047073364

>  <fragmenstein_outcome>  (74) 
too moved

>  <fragmenstein_mode>  (74) 
expansion

>  <fragmenstein_error>  (74) 


$$$$
C46197-P93
     RDKit          3D

 50 53  0  0  0  0  0  0  0  0999 V2000
   -1.4168   -1.7369    8.3326 C   0  0  0  0  0  0  0  0  0  0  0  0
   -2.1812   -0.8686    8.9719 O   0  0  0  0  0  0  0  0  0  0  0  0
   -1.2171    0.0513    9.1060 C   0  0  0  0  0  0  0  0  0  0  0  0
   -2.0448    1.6634    8.5941 C   0  0  0  0  0  0  0  0  0  0  0  0
   -1.2567    3.3193    8.4427 C   0  0  0  0  0  0  0  0  0  0  0  0
    0.4550    3.5966    9.0887 C   0  0  0  0  0  0  0  0  0  0  0  0
    1.4949    2.1172    9.4958 C   0  0  0  0  0  0  0  0  0  0  0  0
    0.8917    0.2524    9.5970 C   0  0  0  0  0  0  0  0  0  0  0  0
    2.2116    1.1183    8.5240 C   0  0  0  0  0  0  0  0  0  0  0  0
    3.3760    1.7998    9.0023 C   0  0  0  0  0  0  0  0  0  0  0  0
    2.8221    2.2274   10.1167 N   0  0  0  0  0  0  0  0  0  0  0  0
    3.3955    3.2890   10.9812 C   0  0  0  0  0  0  0  0  0  0  0  0
    3.3180    3.0486   12.5213 C   0  0  0  0  0  0  0  0  0  0  0  0
    4.3958    3.6559   13.3387 N   0  0  0  0  0  0  0  0  0  0  0  0
    4.6194    3.6517   14.7836 C   0  0  0  0  0  0  0  0  0  0  0  0
    3.9455    3.2250   15.6736 O   0  0  0  0  0  0  0  0  0  0  0  0
    5.9595    4.1921   15.1318 C   0  0  0  0  0  0  0  0  0  0  0  0
    6.5319    5.2885   14.5381 N   0  0  0  0  0  0  0  0  0  0  0  0
    7.8688    5.3293   14.6487 N   0  0  0  0  0  0  0  0  0  0  0  0
    8.1507    4.3788   15.5407 C   0  0  0  0  0  0  0  0  0  0  0  0
    6.9752    3.7145   15.9929 C   0  0  0  0  0  0  0  0  0  0  0  0
    6.9732    2.6177   17.0196 C   0  0  0  0  0  0  0  0  0  0  0  0
    7.8834    1.3994   16.7661 C   0  0  0  0  0  0  0  0  0  0  0  0
    9.3867    1.6432   16.6331 C   0  0  0  0  0  0  0  0  0  0  0  0
    9.8913    2.5848   15.5501 C   0  0  0  0  0  0  0  0  0  0  0  0
    9.5681    4.0477   15.8595 C   0  0  0  0  0  0  0  0  0  0  0  0
   -0.0577   -2.3637    8.8058 H   0  0  0  0  0  0  0  0  0  0  0  0
   -2.1670   -2.4445    7.9649 H   0  0  0  0  0  0  0  0  0  0  0  0
   -0.0013   -1.9910    8.9403 H   0  0  0  0  0  0  0  0  0  0  0  0
   -3.1376    1.6207    8.6911 H   0  0  0  0  0  0  0  0  0  0  0  0
   -1.8720    4.1950    8.2264 H   0  0  0  0  0  0  0  0  0  0  0  0
    0.9320    4.5698    9.1306 H   0  0  0  0  0  0  0  0  0  0  0  0
    2.4592    0.7239    7.5627 H   0  0  0  0  0  0  0  0  0  0  0  0
    4.3347    2.0454    8.5592 H   0  0  0  0  0  0  0  0  0  0  0  0
    2.8665    4.2154   10.7312 H   0  0  0  0  0  0  0  0  0  0  0  0
    4.4353    3.4226   10.6659 H   0  0  0  0  0  0  0  0  0  0  0  0
    3.3462    1.9780   12.7385 H   0  0  0  0  0  0  0  0  0  0  0  0
    2.3675    3.4209   12.9185 H   0  0  0  0  0  0  0  0  0  0  0  0
    5.2151    4.0271   12.8782 H   0  0  0  0  0  0  0  0  0  0  0  0
    6.0826    5.9744   13.9413 H   0  0  0  0  0  0  0  0  0  0  0  0
    7.2538    3.0644   17.9826 H   0  0  0  0  0  0  0  0  0  0  0  0
    5.9479    2.2512   17.1487 H   0  0  0  0  0  0  0  0  0  0  0  0
    7.7315    0.7238   17.6164 H   0  0  0  0  0  0  0  0  0  0  0  0
    7.5419    0.8020   15.9181 H   0  0  0  0  0  0  0  0  0  0  0  0
    9.8649    0.6687   16.4794 H   0  0  0  0  0  0  0  0  0  0  0  0
    9.7529    2.0394   17.5786 H   0  0  0  0  0  0  0  0  0  0  0  0
   10.9840    2.4874   15.5109 H   0  0  0  0  0  0  0  0  0  0  0  0
    9.5179    2.2862   14.5660 H   0  0  0  0  0  0  0  0  0  0  0  0
   10.2326    4.6819   15.2586 H   0  0  0  0  0  0  0  0  0  0  0  0
    9.7776    4.2854   16.9091 H   0  0  0  0  0  0  0  0  0  0  0  0
  1  2  1  0
  2  3  1  0
  3  4  2  0
  4  5  1  0
  5  6  2  0
  6  7  1  0
  7  8  2  0
  8  9  1  0
  9 10  2  0
 10 11  1  0
 11 12  1  0
 12 13  1  0
 13 14  1  0
 14 15  1  0
 15 16  2  0
 15 17  1  0
 17 18  1  0
 18 19  1  0
 19 20  2  0
 20 21  1  0
 21 22  1  0
 22 23  1  0
 23 24  1  0
 24 25  1  0
 25 26  1  0
  8  3  1  0
 21 17  2  0
 11  7  1  0
 26 20  1  0
  1 27  1  0
  1 28  1  0
  1 29  1  0
  4 30  1  0
  5 31  1  0
  6 32  1  0
  9 33  1  0
 10 34  1  0
 12 35  1  0
 12 36  1  0
 13 37  1  0
 13 38  1  0
 14 39  1  0
 18 40  1  0
 22 41  1  0
 22 42  1  0
 23 43  1  0
 23 44  1  0
 24 45  1  0
 24 46  1  0
 25 47  1  0
 25 48  1  0
 26 49  1  0
 26 50  1  0
M  END
>  <Energy>  (75) 
1055.8264241107827

>  <compound_id>  (75) 
46197

>  <target_id>  (75) 
1

>  <reference_id>  (75) 
93

>  <inspiration_ids>  (75) 
[93, 127]

>  <energy_score>  (75) 
1005.6307832909604

>  <distance_score>  (75) 
8.614333934434148

>  <path>  (75) 
/opt/xchem-fragalysis-2/maxwin/BulkDock/SCRATCH/511023/C46197-P93/C46197-P93.minimised.mol

>  <scratch_subdir>  (75) 
/opt/xchem-fragalysis-2/maxwin/BulkDock/SCRATCH/511023/C46197-P93

>  <fragmenstein_runtime>  (75) 
17.472233533859253

>  <fragmenstein_outcome>  (75) 
too moved

>  <fragmenstein_mode>  (75) 
expansion

>  <fragmenstein_error>  (75) 


$$$$
C46197-P127
     RDKit          3D

 50 53  0  0  0  0  0  0  0  0999 V2000
   -4.4554   -0.1435    8.6003 C   0  0  0  0  0  0  0  0  0  0  0  0
   -3.2204   -0.1278    9.3567 O   0  0  0  0  0  0  0  0  0  0  0  0
   -1.8418   -0.2399    8.6418 C   0  0  0  0  0  0  0  0  0  0  0  0
   -2.2912   -0.5123    7.3573 C   0  0  0  0  0  0  0  0  0  0  0  0
   -2.1987   -1.7871    7.4624 C   0  0  0  0  0  0  0  0  0  0  0  0
   -1.3167   -1.9912    8.5893 C   0  0  0  0  0  0  0  0  0  0  0  0
    0.5512   -1.9625    9.2194 C   0  0  0  0  0  0  0  0  0  0  0  0
   -0.2023   -0.8381    9.6688 C   0  0  0  0  0  0  0  0  0  0  0  0
    1.4761   -0.4844    9.5991 C   0  0  0  0  0  0  0  0  0  0  0  0
    1.8825   -0.7968   10.9895 C   0  0  0  0  0  0  0  0  0  0  0  0
    1.7968   -1.9538   10.5224 N   0  0  0  0  0  0  0  0  0  0  0  0
    3.3383   -2.7971   11.1540 C   0  0  0  0  0  0  0  0  0  0  0  0
    3.8381   -3.7874   12.6563 C   0  0  0  0  0  0  0  0  0  0  0  0
    5.1523   -3.5038   13.8447 N   0  0  0  0  0  0  0  0  0  0  0  0
    6.4388   -2.4982   13.7913 C   0  0  0  0  0  0  0  0  0  0  0  0
    6.8009   -1.7924   12.8890 O   0  0  0  0  0  0  0  0  0  0  0  0
    7.3939   -2.3366   15.0203 C   0  0  0  0  0  0  0  0  0  0  0  0
    6.9680   -1.4274   15.9537 N   0  0  0  0  0  0  0  0  0  0  0  0
    7.9086   -0.6993   16.5949 N   0  0  0  0  0  0  0  0  0  0  0  0
    9.0204   -1.0339   15.9502 C   0  0  0  0  0  0  0  0  0  0  0  0
    8.8334   -2.2606   15.2435 C   0  0  0  0  0  0  0  0  0  0  0  0
   10.0658   -3.0974   14.8950 C   0  0  0  0  0  0  0  0  0  0  0  0
   11.3616   -2.8299   15.6797 C   0  0  0  0  0  0  0  0  0  0  0  0
   12.1286   -1.6104   15.1734 C   0  0  0  0  0  0  0  0  0  0  0  0
   11.2743   -0.3579   14.9951 C   0  0  0  0  0  0  0  0  0  0  0  0
   10.2443   -0.1900   16.1061 C   0  0  0  0  0  0  0  0  0  0  0  0
   -4.5557    0.7691    8.0043 H   0  0  0  0  0  0  0  0  0  0  0  0
   -5.3016   -0.1843    9.2747 H   0  0  0  0  0  0  0  0  0  0  0  0
   -4.5955   -1.0474    8.0024 H   0  0  0  0  0  0  0  0  0  0  0  0
   -3.0657   -0.0228    6.7954 H   0  0  0  0  0  0  0  0  0  0  0  0
   -3.0808   -2.4037    7.2873 H   0  0  0  0  0  0  0  0  0  0  0  0
   -2.1701   -2.1487    9.3120 H   0  0  0  0  0  0  0  0  0  0  0  0
    1.7643    0.4886    9.1584 H   0  0  0  0  0  0  0  0  0  0  0  0
    2.4439   -0.2188   11.7231 H   0  0  0  0  0  0  0  0  0  0  0  0
    3.6064   -3.2421   10.2075 H   0  0  0  0  0  0  0  0  0  0  0  0
    3.8714   -1.9658   11.5031 H   0  0  0  0  0  0  0  0  0  0  0  0
    4.1234   -4.7638   12.2504 H   0  0  0  0  0  0  0  0  0  0  0  0
    2.9601   -3.9146   13.2962 H   0  0  0  0  0  0  0  0  0  0  0  0
    5.0709   -3.8955   14.7742 H   0  0  0  0  0  0  0  0  0  0  0  0
    6.0183   -1.0905   16.0204 H   0  0  0  0  0  0  0  0  0  0  0  0
   10.3730   -3.0512   13.8587 H   0  0  0  0  0  0  0  0  0  0  0  0
    9.8169   -4.1286   15.1261 H   0  0  0  0  0  0  0  0  0  0  0  0
   12.0195   -3.7022   15.5739 H   0  0  0  0  0  0  0  0  0  0  0  0
   11.1657   -2.7359   16.7497 H   0  0  0  0  0  0  0  0  0  0  0  0
   12.9391   -1.3978   15.8818 H   0  0  0  0  0  0  0  0  0  0  0  0
   12.6126   -1.8458   14.2176 H   0  0  0  0  0  0  0  0  0  0  0  0
   10.7843   -0.3707   14.0142 H   0  0  0  0  0  0  0  0  0  0  0  0
   11.9446    0.5105   14.9891 H   0  0  0  0  0  0  0  0  0  0  0  0
    9.9352    0.8630   16.1280 H   0  0  0  0  0  0  0  0  0  0  0  0
   10.7127   -0.4021   17.0620 H   0  0  0  0  0  0  0  0  0  0  0  0
  1  2  1  0
  2  3  1  0
  3  4  2  0
  4  5  1  0
  5  6  2  0
  6  7  1  0
  7  8  2  0
  8  9  1  0
  9 10  2  0
 10 11  1  0
 11 12  1  0
 12 13  1  0
 13 14  1  0
 14 15  1  0
 15 16  2  0
 15 17  1  0
 17 18  1  0
 18 19  1  0
 19 20  2  0
 20 21  1  0
 21 22  1  0
 22 23  1  0
 23 24  1  0
 24 25  1  0
 25 26  1  0
  8  3  1  0
 21 17  2  0
 11  7  1  0
 26 20  1  0
  1 27  1  0
  1 28  1  0
  1 29  1  0
  4 30  1  0
  5 31  1  0
  6 32  1  0
  9 33  1  0
 10 34  1  0
 12 35  1  0
 12 36  1  0
 13 37  1  0
 13 38  1  0
 14 39  1  0
 18 40  1  0
 22 41  1  0
 22 42  1  0
 23 43  1  0
 23 44  1  0
 24 45  1  0
 24 46  1  0
 25 47  1  0
 25 48  1  0
 26 49  1  0
 26 50  1  0
M  END
>  <Energy>  (76) 
962.79828671972325

>  <compound_id>  (76) 
46197

>  <target_id>  (76) 
1

>  <reference_id>  (76) 
127

>  <inspiration_ids>  (76) 
[93, 127]

>  <energy_score>  (76) 
912.6026458999038

>  <distance_score>  (76) 
6.684926270005542

>  <path>  (76) 
/opt/xchem-fragalysis-2/maxwin/BulkDock/SCRATCH/511023/C46197-P127/C46197-P127.minimised.mol

>  <scratch_subdir>  (76) 
/opt/xchem-fragalysis-2/maxwin/BulkDock/SCRATCH/511023/C46197-P127

>  <fragmenstein_runtime>  (76) 
18.970442533493042

>  <fragmenstein_outcome>  (76) 
too moved

>  <fragmenstein_mode>  (76) 
expansion

>  <fragmenstein_error>  (76) 


$$$$
C25404-P93
     RDKit          3D

 39 41  0  0  0  0  0  0  0  0999 V2000
   -0.0796   -6.0205   20.9322 O   0  0  0  0  0  0  0  0  0  0  0  0
    0.2284   -4.8891   21.1900 C   0  0  0  0  0  0  0  0  0  0  0  0
   -0.7625   -3.7262   20.6819 C   0  0  0  0  0  0  0  0  0  0  0  0
   -1.9772   -4.2548   19.8187 C   0  0  0  0  0  0  0  0  0  0  0  0
   -2.8313   -3.3183   18.9781 C   0  0  0  0  0  0  0  0  0  0  0  0
   -3.2397   -2.0039   19.0874 C   0  0  0  0  0  0  0  0  0  0  0  0
   -4.1932   -1.8134   18.0602 C   0  0  0  0  0  0  0  0  0  0  0  0
   -4.3560   -2.9036   17.3113 N   0  0  0  0  0  0  0  0  0  0  0  0
   -3.5173   -3.7944   17.8725 N   0  0  0  0  0  0  0  0  0  0  0  0
    1.4377   -4.3487   21.8271 N   0  0  0  0  0  0  0  0  0  0  0  0
    2.7189   -5.0327   22.2681 C   0  0  0  0  0  0  0  0  0  0  0  0
    4.1208   -4.2083   22.4513 C   0  0  0  0  0  0  0  0  0  0  0  0
    5.0808   -4.0072   21.1910 C   0  0  0  0  0  0  0  0  0  0  0  0
    5.6374   -5.0325   20.4066 C   0  0  0  0  0  0  0  0  0  0  0  0
    6.1375   -4.5162   19.1740 C   0  0  0  0  0  0  0  0  0  0  0  0
    6.9200   -5.2008   17.5553 C   0  0  0  0  0  0  0  0  0  0  0  0
    7.7512   -3.9393   16.0681 C   0  0  0  0  0  0  0  0  0  0  0  0
    7.2088   -2.0735   16.1520 C   0  0  0  0  0  0  0  0  0  0  0  0
    6.0822   -1.4849   17.7419 C   0  0  0  0  0  0  0  0  0  0  0  0
    5.4983   -2.6799   19.1614 C   0  0  0  0  0  0  0  0  0  0  0  0
    5.3501   -2.6798   20.6468 N   0  0  0  0  0  0  0  0  0  0  0  0
   -0.1749   -3.0261   20.0788 H   0  0  0  0  0  0  0  0  0  0  0  0
   -1.1401   -3.1940   21.5615 H   0  0  0  0  0  0  0  0  0  0  0  0
   -2.6572   -4.7701   20.5113 H   0  0  0  0  0  0  0  0  0  0  0  0
   -1.5986   -5.0385   19.1592 H   0  0  0  0  0  0  0  0  0  0  0  0
   -2.9431   -1.2914   19.8436 H   0  0  0  0  0  0  0  0  0  0  0  0
   -4.7696   -0.9258   17.8329 H   0  0  0  0  0  0  0  0  0  0  0  0
   -3.4808   -4.7300   17.4804 H   0  0  0  0  0  0  0  0  0  0  0  0
    1.3236   -3.3515   21.9624 H   0  0  0  0  0  0  0  0  0  0  0  0
    2.8769   -5.8739   21.5847 H   0  0  0  0  0  0  0  0  0  0  0  0
    2.4683   -5.4502   23.2500 H   0  0  0  0  0  0  0  0  0  0  0  0
    3.9072   -3.2308   22.9003 H   0  0  0  0  0  0  0  0  0  0  0  0
    4.7232   -4.7741   23.1745 H   0  0  0  0  0  0  0  0  0  0  0  0
    5.6099   -6.0830   20.6681 H   0  0  0  0  0  0  0  0  0  0  0  0
    6.7450   -6.2673   17.4286 H   0  0  0  0  0  0  0  0  0  0  0  0
    8.5214   -4.1278   15.3005 H   0  0  0  0  0  0  0  0  0  0  0  0
    7.7633   -1.3337   15.5703 H   0  0  0  0  0  0  0  0  0  0  0  0
    6.4465   -0.5976   18.2748 H   0  0  0  0  0  0  0  0  0  0  0  0
    5.1192   -1.8251   21.1258 H   0  0  0  0  0  0  0  0  0  0  0  0
  1  2  2  0
  2  3  1  0
  3  4  1  0
  4  5  1  0
  5  6  2  0
  6  7  1  0
  7  8  2  0
  8  9  1  0
  2 10  1  0
 10 11  1  0
 11 12  1  0
 12 13  1  0
 13 14  2  0
 14 15  1  0
 15 16  2  0
 16 17  1  0
 17 18  2  0
 18 19  1  0
 19 20  2  0
 20 21  1  0
  9  5  1  0
 21 13  1  0
 20 15  1  0
  3 22  1  0
  3 23  1  0
  4 24  1  0
  4 25  1  0
  6 26  1  0
  7 27  1  0
  9 28  1  0
 10 29  1  0
 11 30  1  0
 11 31  1  0
 12 32  1  0
 12 33  1  0
 14 34  1  0
 16 35  1  0
 17 36  1  0
 18 37  1  0
 19 38  1  0
 21 39  1  0
M  END
>  <Energy>  (77) 
713.97204051149151

>  <compound_id>  (77) 
25404

>  <target_id>  (77) 
1

>  <reference_id>  (77) 
93

>  <inspiration_ids>  (77) 
[93, 127]

>  <energy_score>  (77) 
675.0355118796058

>  <distance_score>  (77) 
13.121987108062008

>  <path>  (77) 
/opt/xchem-fragalysis-2/maxwin/BulkDock/SCRATCH/511023/C25404-P93/C25404-P93.minimised.mol

>  <scratch_subdir>  (77) 
/opt/xchem-fragalysis-2/maxwin/BulkDock/SCRATCH/511023/C25404-P93

>  <fragmenstein_runtime>  (77) 
12.433138132095337

>  <fragmenstein_outcome>  (77) 
too moved

>  <fragmenstein_mode>  (77) 
expansion

>  <fragmenstein_error>  (77) 


$$$$
C25404-P127
     RDKit          3D

 39 41  0  0  0  0  0  0  0  0999 V2000
   -1.5239   -2.0372    7.8997 O   0  0  0  0  0  0  0  0  0  0  0  0
   -1.7329   -1.4355    8.9713 C   0  0  0  0  0  0  0  0  0  0  0  0
   -3.1795   -0.8030    8.9601 C   0  0  0  0  0  0  0  0  0  0  0  0
   -4.6585   -0.7166    8.4575 C   0  0  0  0  0  0  0  0  0  0  0  0
   -5.2332   -1.6498    7.4580 C   0  0  0  0  0  0  0  0  0  0  0  0
   -4.6880   -2.5279    6.5518 C   0  0  0  0  0  0  0  0  0  0  0  0
   -5.7902   -3.0730    5.8680 C   0  0  0  0  0  0  0  0  0  0  0  0
   -6.9530   -2.5789    6.2938 N   0  0  0  0  0  0  0  0  0  0  0  0
   -6.5940   -1.7086    7.2481 N   0  0  0  0  0  0  0  0  0  0  0  0
   -0.5513   -1.1312   10.3422 N   0  0  0  0  0  0  0  0  0  0  0  0
    1.3160   -1.4972   10.4706 C   0  0  0  0  0  0  0  0  0  0  0  0
    2.9529   -2.4995   11.0128 C   0  0  0  0  0  0  0  0  0  0  0  0
    4.2981   -2.5269   12.0190 C   0  0  0  0  0  0  0  0  0  0  0  0
    5.3916   -3.1865   12.3452 C   0  0  0  0  0  0  0  0  0  0  0  0
    6.8889   -2.2158   12.8894 C   0  0  0  0  0  0  0  0  0  0  0  0
    7.7482   -0.9732   13.1676 C   0  0  0  0  0  0  0  0  0  0  0  0
    8.6938   -0.8818   14.3257 C   0  0  0  0  0  0  0  0  0  0  0  0
    8.4622   -1.7547   15.3065 C   0  0  0  0  0  0  0  0  0  0  0  0
    7.2787   -2.4596   15.1210 C   0  0  0  0  0  0  0  0  0  0  0  0
    6.2767   -2.4244   14.0667 C   0  0  0  0  0  0  0  0  0  0  0  0
    5.7460   -1.5758   12.5994 N   0  0  0  0  0  0  0  0  0  0  0  0
   -2.9502   -0.6213    7.8754 H   0  0  0  0  0  0  0  0  0  0  0  0
   -2.9570    0.2366    9.1111 H   0  0  0  0  0  0  0  0  0  0  0  0
   -4.7541    0.2740    7.9732 H   0  0  0  0  0  0  0  0  0  0  0  0
   -5.3512   -0.6039    9.2803 H   0  0  0  0  0  0  0  0  0  0  0  0
   -3.6389   -2.7462    6.3990 H   0  0  0  0  0  0  0  0  0  0  0  0
   -5.7902   -3.8086    5.0742 H   0  0  0  0  0  0  0  0  0  0  0  0
   -7.3285   -1.1930    7.7232 H   0  0  0  0  0  0  0  0  0  0  0  0
   -1.0340   -0.6884   11.1201 H   0  0  0  0  0  0  0  0  0  0  0  0
    1.6830   -0.7990    9.7417 H   0  0  0  0  0  0  0  0  0  0  0  0
    1.3596   -0.9578   11.4406 H   0  0  0  0  0  0  0  0  0  0  0  0
    3.4171   -2.8738   10.1155 H   0  0  0  0  0  0  0  0  0  0  0  0
    2.9432   -1.5756   11.5107 H   0  0  0  0  0  0  0  0  0  0  0  0
    5.2034   -4.2056   12.1262 H   0  0  0  0  0  0  0  0  0  0  0  0
    8.0625   -0.5004   12.2505 H   0  0  0  0  0  0  0  0  0  0  0  0
    9.5848   -0.2667   14.2734 H   0  0  0  0  0  0  0  0  0  0  0  0
    9.1651   -1.9112   16.1042 H   0  0  0  0  0  0  0  0  0  0  0  0
    7.2241   -3.3445   15.7160 H   0  0  0  0  0  0  0  0  0  0  0  0
    5.7443   -0.5535   12.4605 H   0  0  0  0  0  0  0  0  0  0  0  0
  1  2  2  0
  2  3  1  0
  3  4  1  0
  4  5  1  0
  5  6  2  0
  6  7  1  0
  7  8  2  0
  8  9  1  0
  2 10  1  0
 10 11  1  0
 11 12  1  0
 12 13  1  0
 13 14  2  0
 14 15  1  0
 15 16  2  0
 16 17  1  0
 17 18  2  0
 18 19  1  0
 19 20  2  0
 20 21  1  0
  9  5  1  0
 21 13  1  0
 20 15  1  0
  3 22  1  0
  3 23  1  0
  4 24  1  0
  4 25  1  0
  6 26  1  0
  7 27  1  0
  9 28  1  0
 10 29  1  0
 11 30  1  0
 11 31  1  0
 12 32  1  0
 12 33  1  0
 14 34  1  0
 16 35  1  0
 17 36  1  0
 18 37  1  0
 19 38  1  0
 21 39  1  0
M  END
>  <Energy>  (78) 
838.44801343075221

>  <compound_id>  (78) 
25404

>  <target_id>  (78) 
1

>  <reference_id>  (78) 
127

>  <inspiration_ids>  (78) 
[93, 127]

>  <energy_score>  (78) 
799.5114847988702

>  <distance_score>  (78) 
8.844828795615813

>  <path>  (78) 
/opt/xchem-fragalysis-2/maxwin/BulkDock/SCRATCH/511023/C25404-P127/C25404-P127.minimised.mol

>  <scratch_subdir>  (78) 
/opt/xchem-fragalysis-2/maxwin/BulkDock/SCRATCH/511023/C25404-P127

>  <fragmenstein_runtime>  (78) 
13.173344612121582

>  <fragmenstein_outcome>  (78) 
too moved

>  <fragmenstein_mode>  (78) 
expansion

>  <fragmenstein_error>  (78) 


$$$$
C30256-P93
     RDKit          3D

 36 38  0  0  0  0  0  0  0  0999 V2000
    6.4382    5.3999   16.7687 C   0  0  0  0  0  0  0  0  0  0  0  0
    6.3167    4.4298   15.5781 C   0  0  0  0  0  0  0  0  0  0  0  0
    6.4112    5.0283   14.2066 N   0  0  0  0  0  0  0  0  0  0  0  0
    7.9536    4.9871   14.5380 C   0  0  0  0  0  0  0  0  0  0  0  0
    8.8741    3.8944   15.2053 C   0  0  0  0  0  0  0  0  0  0  0  0
    9.2908    3.9273   16.5345 C   0  0  0  0  0  0  0  0  0  0  0  0
   10.2248    2.9567   16.7691 N   0  0  0  0  0  0  0  0  0  0  0  0
   10.4710    2.2563   15.6206 C   0  0  0  0  0  0  0  0  0  0  0  0
   11.3851    1.2141   15.4027 C   0  0  0  0  0  0  0  0  0  0  0  0
   11.5469    0.7594   14.1013 C   0  0  0  0  0  0  0  0  0  0  0  0
   10.8243    1.3412   13.0694 C   0  0  0  0  0  0  0  0  0  0  0  0
    9.8709    2.3471   13.3067 C   0  0  0  0  0  0  0  0  0  0  0  0
    9.6770    2.8323   14.6145 C   0  0  0  0  0  0  0  0  0  0  0  0
    5.6293    4.2555   13.2723 C   0  0  0  0  0  0  0  0  0  0  0  0
    5.9421    3.3240   12.5779 O   0  0  0  0  0  0  0  0  0  0  0  0
    4.1263    4.6408   13.1857 C   0  0  0  0  0  0  0  0  0  0  0  0
    3.1734    4.0392   12.2732 C   0  0  0  0  0  0  0  0  0  0  0  0
    1.9391    4.5699   12.5666 C   0  0  0  0  0  0  0  0  0  0  0  0
    2.1628    5.4130   13.6074 N   0  0  0  0  0  0  0  0  0  0  0  0
    3.4600    5.5091   13.9827 N   0  0  0  0  0  0  0  0  0  0  0  0
    6.2770    4.8545   17.7047 H   0  0  0  0  0  0  0  0  0  0  0  0
    7.3833    5.9365   16.8519 H   0  0  0  0  0  0  0  0  0  0  0  0
    5.6568    6.1661   16.6975 H   0  0  0  0  0  0  0  0  0  0  0  0
    6.7225    3.4171   15.7044 H   0  0  0  0  0  0  0  0  0  0  0  0
    5.2489    4.1795   15.6629 H   0  0  0  0  0  0  0  0  0  0  0  0
    8.3673    5.0467   13.5181 H   0  0  0  0  0  0  0  0  0  0  0  0
    8.2127    5.9722   14.9548 H   0  0  0  0  0  0  0  0  0  0  0  0
    9.0503    4.6116   17.3354 H   0  0  0  0  0  0  0  0  0  0  0  0
   10.7460    2.8544   17.6301 H   0  0  0  0  0  0  0  0  0  0  0  0
   11.9970    0.8104   16.2010 H   0  0  0  0  0  0  0  0  0  0  0  0
   12.2607   -0.0304   13.8815 H   0  0  0  0  0  0  0  0  0  0  0  0
   11.0081    1.0131   12.0521 H   0  0  0  0  0  0  0  0  0  0  0  0
    9.3106    2.7672   12.4749 H   0  0  0  0  0  0  0  0  0  0  0  0
    3.4024    3.2932   11.5249 H   0  0  0  0  0  0  0  0  0  0  0  0
    0.9531    4.4174   12.1522 H   0  0  0  0  0  0  0  0  0  0  0  0
    1.4848    5.9770   14.1070 H   0  0  0  0  0  0  0  0  0  0  0  0
  1  2  1  0
  2  3  1  0
  3  4  1  0
  4  5  1  0
  5  6  2  0
  6  7  1  0
  7  8  1  0
  8  9  2  0
  9 10  1  0
 10 11  2  0
 11 12  1  0
 12 13  2  0
  3 14  1  0
 14 15  2  0
 14 16  1  0
 16 17  1  0
 17 18  2  0
 18 19  1  0
 19 20  1  0
 13  5  1  0
 20 16  2  0
 13  8  1  0
  1 21  1  0
  1 22  1  0
  1 23  1  0
  2 24  1  0
  2 25  1  0
  4 26  1  0
  4 27  1  0
  6 28  1  0
  7 29  1  0
  9 30  1  0
 10 31  1  0
 11 32  1  0
 12 33  1  0
 17 34  1  0
 18 35  1  0
 19 36  1  0
M  END
>  <Energy>  (79) 
148.73894066878006

>  <compound_id>  (79) 
30256

>  <target_id>  (79) 
1

>  <reference_id>  (79) 
93

>  <inspiration_ids>  (79) 
[93, 127]

>  <energy_score>  (79) 
68.64418489860662

>  <distance_score>  (79) 
11.691961990050661

>  <path>  (79) 
/opt/xchem-fragalysis-2/maxwin/BulkDock/SCRATCH/511023/C30256-P93/C30256-P93.minimised.mol

>  <scratch_subdir>  (79) 
/opt/xchem-fragalysis-2/maxwin/BulkDock/SCRATCH/511023/C30256-P93

>  <fragmenstein_runtime>  (79) 
6.984384059906006

>  <fragmenstein_outcome>  (79) 
too moved

>  <fragmenstein_mode>  (79) 
expansion

>  <fragmenstein_error>  (79) 


$$$$
C30256-P127
     RDKit          3D

 36 38  0  0  0  0  0  0  0  0999 V2000
    7.5640    5.2551   12.4439 C   0  0  0  0  0  0  0  0  0  0  0  0
    6.7660    4.3435   13.3992 C   0  0  0  0  0  0  0  0  0  0  0  0
    6.0466    3.0987   12.9273 N   0  0  0  0  0  0  0  0  0  0  0  0
    7.4940    2.5600   12.8353 C   0  0  0  0  0  0  0  0  0  0  0  0
    8.5471    2.3170   13.9534 C   0  0  0  0  0  0  0  0  0  0  0  0
    9.5857    3.1833   14.2819 C   0  0  0  0  0  0  0  0  0  0  0  0
   10.4752    2.5576   15.1150 N   0  0  0  0  0  0  0  0  0  0  0  0
   10.1076    1.2529   15.3018 C   0  0  0  0  0  0  0  0  0  0  0  0
   10.7974    0.2199   15.9551 C   0  0  0  0  0  0  0  0  0  0  0  0
   10.2227   -1.0473   15.9510 C   0  0  0  0  0  0  0  0  0  0  0  0
    8.9808   -1.2465   15.3649 C   0  0  0  0  0  0  0  0  0  0  0  0
    8.3054   -0.1978   14.7157 C   0  0  0  0  0  0  0  0  0  0  0  0
    8.8793    1.0842   14.6506 C   0  0  0  0  0  0  0  0  0  0  0  0
    5.0956    3.4397   11.8815 C   0  0  0  0  0  0  0  0  0  0  0  0
    5.2307    3.4736   10.6850 O   0  0  0  0  0  0  0  0  0  0  0  0
    3.6547    3.7023   12.3516 C   0  0  0  0  0  0  0  0  0  0  0  0
    2.5534    4.0306   11.4747 C   0  0  0  0  0  0  0  0  0  0  0  0
    1.4264    4.1228   12.2580 C   0  0  0  0  0  0  0  0  0  0  0  0
    1.8476    3.8119   13.5110 N   0  0  0  0  0  0  0  0  0  0  0  0
    3.1876    3.6542   13.6188 N   0  0  0  0  0  0  0  0  0  0  0  0
    6.9912    5.4668   11.5357 H   0  0  0  0  0  0  0  0  0  0  0  0
    8.5348    4.8589   12.1399 H   0  0  0  0  0  0  0  0  0  0  0  0
    7.7573    6.2130   12.9398 H   0  0  0  0  0  0  0  0  0  0  0  0
    7.2112    4.2364   14.3976 H   0  0  0  0  0  0  0  0  0  0  0  0
    5.9144    4.9939   13.6647 H   0  0  0  0  0  0  0  0  0  0  0  0
    7.2599    1.5283   12.5196 H   0  0  0  0  0  0  0  0  0  0  0  0
    7.9785    2.9091   11.9101 H   0  0  0  0  0  0  0  0  0  0  0  0
    9.8013    4.1897   13.9515 H   0  0  0  0  0  0  0  0  0  0  0  0
   11.3334    2.9654   15.4586 H   0  0  0  0  0  0  0  0  0  0  0  0
   11.7709    0.3884   16.4043 H   0  0  0  0  0  0  0  0  0  0  0  0
   10.7637   -1.8863   16.3800 H   0  0  0  0  0  0  0  0  0  0  0  0
    8.5464   -2.2422   15.3183 H   0  0  0  0  0  0  0  0  0  0  0  0
    7.3712   -0.4007   14.1973 H   0  0  0  0  0  0  0  0  0  0  0  0
    2.6127    4.1587   10.4019 H   0  0  0  0  0  0  0  0  0  0  0  0
    0.3917    4.3344   12.0272 H   0  0  0  0  0  0  0  0  0  0  0  0
    1.2913    3.7301   14.3555 H   0  0  0  0  0  0  0  0  0  0  0  0
  1  2  1  0
  2  3  1  0
  3  4  1  0
  4  5  1  0
  5  6  2  0
  6  7  1  0
  7  8  1  0
  8  9  2  0
  9 10  1  0
 10 11  2  0
 11 12  1  0
 12 13  2  0
  3 14  1  0
 14 15  2  0
 14 16  1  0
 16 17  1  0
 17 18  2  0
 18 19  1  0
 19 20  1  0
 13  5  1  0
 20 16  2  0
 13  8  1  0
  1 21  1  0
  1 22  1  0
  1 23  1  0
  2 24  1  0
  2 25  1  0
  4 26  1  0
  4 27  1  0
  6 28  1  0
  7 29  1  0
  9 30  1  0
 10 31  1  0
 11 32  1  0
 12 33  1  0
 17 34  1  0
 18 35  1  0
 19 36  1  0
M  END
>  <Energy>  (80) 
143.08797909532558

>  <compound_id>  (80) 
30256

>  <target_id>  (80) 
1

>  <reference_id>  (80) 
127

>  <inspiration_ids>  (80) 
[93, 127]

>  <energy_score>  (80) 
62.99322332515413

>  <distance_score>  (80) 
11.151440910323993

>  <path>  (80) 
/opt/xchem-fragalysis-2/maxwin/BulkDock/SCRATCH/511023/C30256-P127/C30256-P127.minimised.mol

>  <scratch_subdir>  (80) 
/opt/xchem-fragalysis-2/maxwin/BulkDock/SCRATCH/511023/C30256-P127

>  <fragmenstein_runtime>  (80) 
6.023946523666382

>  <fragmenstein_outcome>  (80) 
too moved

>  <fragmenstein_mode>  (80) 
expansion

>  <fragmenstein_error>  (80) 


$$$$
C30257-P93
     RDKit          3D

 41 43  0  0  0  0  0  0  0  0999 V2000
   -2.6762   -5.4056    8.5170 C   0  0  0  0  0  0  0  0  0  0  0  0
   -1.7707   -4.7609    7.5350 N   0  0  0  0  0  0  0  0  0  0  0  0
   -3.0720   -3.9972    7.1600 C   0  0  0  0  0  0  0  0  0  0  0  0
   -4.5346   -4.3893    6.8455 C   0  0  0  0  0  0  0  0  0  0  0  0
   -5.6264   -3.4532    6.8180 C   0  0  0  0  0  0  0  0  0  0  0  0
   -6.7573   -4.1836    6.5554 C   0  0  0  0  0  0  0  0  0  0  0  0
   -6.3252   -5.4628    6.4044 N   0  0  0  0  0  0  0  0  0  0  0  0
   -4.9929   -5.6180    6.5656 N   0  0  0  0  0  0  0  0  0  0  0  0
   -0.5371   -4.2823    8.2190 C   0  0  0  0  0  0  0  0  0  0  0  0
   -0.3011   -3.2440    8.7094 O   0  0  0  0  0  0  0  0  0  0  0  0
    0.2974   -5.4717    8.0800 N   0  0  0  0  0  0  0  0  0  0  0  0
    1.7046   -5.6998    8.4198 C   0  0  0  0  0  0  0  0  0  0  0  0
    2.0397   -5.8311    9.9319 C   0  0  0  0  0  0  0  0  0  0  0  0
    2.7915   -4.6766   10.5581 C   0  0  0  0  0  0  0  0  0  0  0  0
    2.7361   -3.3156   10.3289 C   0  0  0  0  0  0  0  0  0  0  0  0
    3.5500   -2.4562   11.3387 C   0  0  0  0  0  0  0  0  0  0  0  0
    4.5344   -0.8660   11.3964 C   0  0  0  0  0  0  0  0  0  0  0  0
    6.0378   -0.9587   12.0738 C   0  0  0  0  0  0  0  0  0  0  0  0
    6.3465   -2.0187   12.8045 C   0  0  0  0  0  0  0  0  0  0  0  0
    5.3187   -3.0960   12.5039 C   0  0  0  0  0  0  0  0  0  0  0  0
    3.9958   -3.4954   12.0876 C   0  0  0  0  0  0  0  0  0  0  0  0
    3.5209   -4.7483   11.7047 N   0  0  0  0  0  0  0  0  0  0  0  0
   -3.0953   -4.7490    9.2774 H   0  0  0  0  0  0  0  0  0  0  0  0
   -3.3376   -6.1627    8.0927 H   0  0  0  0  0  0  0  0  0  0  0  0
   -2.0219   -6.0402    9.1373 H   0  0  0  0  0  0  0  0  0  0  0  0
   -2.7443   -3.5590    6.2031 H   0  0  0  0  0  0  0  0  0  0  0  0
   -3.0874   -3.1072    7.8123 H   0  0  0  0  0  0  0  0  0  0  0  0
   -5.5790   -2.3880    7.0046 H   0  0  0  0  0  0  0  0  0  0  0  0
   -7.7988   -3.9106    6.4611 H   0  0  0  0  0  0  0  0  0  0  0  0
   -6.8760   -6.2846    6.1811 H   0  0  0  0  0  0  0  0  0  0  0  0
   -0.1978   -6.1611    7.5286 H   0  0  0  0  0  0  0  0  0  0  0  0
    1.9698   -6.6388    7.9212 H   0  0  0  0  0  0  0  0  0  0  0  0
    2.2845   -4.8976    7.9513 H   0  0  0  0  0  0  0  0  0  0  0  0
    2.6680   -6.7234   10.0550 H   0  0  0  0  0  0  0  0  0  0  0  0
    1.1217   -6.0065   10.5060 H   0  0  0  0  0  0  0  0  0  0  0  0
    1.9301   -2.9846    9.6831 H   0  0  0  0  0  0  0  0  0  0  0  0
    4.2945    0.0495   10.8282 H   0  0  0  0  0  0  0  0  0  0  0  0
    6.9145   -0.4924   11.6504 H   0  0  0  0  0  0  0  0  0  0  0  0
    7.3198   -2.1690   13.2421 H   0  0  0  0  0  0  0  0  0  0  0  0
    5.6935   -3.6685   11.6638 H   0  0  0  0  0  0  0  0  0  0  0  0
    3.8040   -5.6271   12.0995 H   0  0  0  0  0  0  0  0  0  0  0  0
  1  2  1  0
  2  3  1  0
  3  4  1  0
  4  5  1  0
  5  6  2  0
  6  7  1  0
  7  8  1  0
  2  9  1  0
  9 10  2  0
  9 11  1  0
 11 12  1  0
 12 13  1  0
 13 14  1  0
 14 15  2  0
 15 16  1  0
 16 17  2  0
 17 18  1  0
 18 19  2  0
 19 20  1  0
 20 21  2  0
 21 22  1  0
  8  4  2  0
 22 14  1  0
 21 16  1  0
  1 23  1  0
  1 24  1  0
  1 25  1  0
  3 26  1  0
  3 27  1  0
  5 28  1  0
  6 29  1  0
  7 30  1  0
 11 31  1  0
 12 32  1  0
 12 33  1  0
 13 34  1  0
 13 35  1  0
 15 36  1  0
 17 37  1  0
 18 38  1  0
 19 39  1  0
 20 40  1  0
 22 41  1  0
M  END
>  <Energy>  (81) 
273.34145606061321

>  <compound_id>  (81) 
30257

>  <target_id>  (81) 
1

>  <reference_id>  (81) 
93

>  <inspiration_ids>  (81) 
[93, 127]

>  <energy_score>  (81) 
280.7936186829976

>  <distance_score>  (81) 
10.920749890990885

>  <path>  (81) 
/opt/xchem-fragalysis-2/maxwin/BulkDock/SCRATCH/511023/C30257-P93/C30257-P93.minimised.mol

>  <scratch_subdir>  (81) 
/opt/xchem-fragalysis-2/maxwin/BulkDock/SCRATCH/511023/C30257-P93

>  <fragmenstein_runtime>  (81) 
14.892585754394531

>  <fragmenstein_outcome>  (81) 
too moved

>  <fragmenstein_mode>  (81) 
expansion

>  <fragmenstein_error>  (81) 


$$$$
C30257-P127
     RDKit          3D

 41 43  0  0  0  0  0  0  0  0999 V2000
    1.4107    0.5975   11.6422 C   0  0  0  0  0  0  0  0  0  0  0  0
    0.2004    1.2200   12.2403 N   0  0  0  0  0  0  0  0  0  0  0  0
   -0.0238    1.6713   10.7533 C   0  0  0  0  0  0  0  0  0  0  0  0
   -0.8221    0.7854    9.7452 C   0  0  0  0  0  0  0  0  0  0  0  0
   -1.5234    1.2620    8.5864 C   0  0  0  0  0  0  0  0  0  0  0  0
   -2.2553    0.1931    8.1195 C   0  0  0  0  0  0  0  0  0  0  0  0
   -1.9424   -0.8473    8.9401 N   0  0  0  0  0  0  0  0  0  0  0  0
   -1.0396   -0.5331    9.8856 N   0  0  0  0  0  0  0  0  0  0  0  0
   -0.5361    0.2230   13.0711 C   0  0  0  0  0  0  0  0  0  0  0  0
   -1.3993   -0.5173   12.7750 O   0  0  0  0  0  0  0  0  0  0  0  0
    0.1427    0.4323   14.3798 N   0  0  0  0  0  0  0  0  0  0  0  0
   -0.1261   -0.1462   15.6954 C   0  0  0  0  0  0  0  0  0  0  0  0
    0.9301   -0.2636   16.8409 C   0  0  0  0  0  0  0  0  0  0  0  0
    2.4407   -0.2561   16.4433 C   0  0  0  0  0  0  0  0  0  0  0  0
    3.2720    1.4803   16.3404 C   0  0  0  0  0  0  0  0  0  0  0  0
    5.3226    1.5243   16.6836 C   0  0  0  0  0  0  0  0  0  0  0  0
    6.5635    2.5365   16.6638 C   0  0  0  0  0  0  0  0  0  0  0  0
    7.9190    1.9696   16.6878 C   0  0  0  0  0  0  0  0  0  0  0  0
    8.2735    0.5211   16.6557 C   0  0  0  0  0  0  0  0  0  0  0  0
    7.3637   -0.6469   16.6959 C   0  0  0  0  0  0  0  0  0  0  0  0
    5.8699   -0.4497   16.9824 C   0  0  0  0  0  0  0  0  0  0  0  0
    4.0783   -1.4189   17.1501 N   0  0  0  0  0  0  0  0  0  0  0  0
    1.8539    0.0212   12.4508 H   0  0  0  0  0  0  0  0  0  0  0  0
    1.2710   -0.1311   10.8383 H   0  0  0  0  0  0  0  0  0  0  0  0
    2.1875    1.3427   11.4139 H   0  0  0  0  0  0  0  0  0  0  0  0
    0.8325    2.1623   10.2584 H   0  0  0  0  0  0  0  0  0  0  0  0
   -0.6850    2.5363   10.9180 H   0  0  0  0  0  0  0  0  0  0  0  0
   -1.5474    2.2755    8.2122 H   0  0  0  0  0  0  0  0  0  0  0  0
   -2.9555    0.0873    7.3039 H   0  0  0  0  0  0  0  0  0  0  0  0
   -2.2874   -1.8013    8.9120 H   0  0  0  0  0  0  0  0  0  0  0  0
    0.7864    1.2098   14.3002 H   0  0  0  0  0  0  0  0  0  0  0  0
   -0.9904    0.4030   16.0892 H   0  0  0  0  0  0  0  0  0  0  0  0
   -0.5145   -1.1505   15.4885 H   0  0  0  0  0  0  0  0  0  0  0  0
    0.7989    0.6082   17.4957 H   0  0  0  0  0  0  0  0  0  0  0  0
    0.7139   -1.1385   17.4651 H   0  0  0  0  0  0  0  0  0  0  0  0
    2.7343    2.4144   16.1998 H   0  0  0  0  0  0  0  0  0  0  0  0
    6.3519    3.5918   16.5503 H   0  0  0  0  0  0  0  0  0  0  0  0
    8.7456    2.6796   16.6399 H   0  0  0  0  0  0  0  0  0  0  0  0
    9.3338    0.3033   16.5047 H   0  0  0  0  0  0  0  0  0  0  0  0
    7.7404   -1.6125   16.3797 H   0  0  0  0  0  0  0  0  0  0  0  0
    3.9385   -1.5108   18.1327 H   0  0  0  0  0  0  0  0  0  0  0  0
  1  2  1  0
  2  3  1  0
  3  4  1  0
  4  5  1  0
  5  6  2  0
  6  7  1  0
  7  8  1  0
  2  9  1  0
  9 10  2  0
  9 11  1  0
 11 12  1  0
 12 13  1  0
 13 14  1  0
 14 15  2  0
 15 16  1  0
 16 17  2  0
 17 18  1  0
 18 19  2  0
 19 20  1  0
 20 21  2  0
 21 22  1  0
  8  4  2  0
 22 14  1  0
 21 16  1  0
  1 23  1  0
  1 24  1  0
  1 25  1  0
  3 26  1  0
  3 27  1  0
  5 28  1  0
  6 29  1  0
  7 30  1  0
 11 31  1  0
 12 32  1  0
 12 33  1  0
 13 34  1  0
 13 35  1  0
 15 36  1  0
 17 37  1  0
 18 38  1  0
 19 39  1  0
 20 40  1  0
 22 41  1  0
M  END
>  <Energy>  (82) 
838.17514188271764

>  <compound_id>  (82) 
30257

>  <target_id>  (82) 
1

>  <reference_id>  (82) 
127

>  <inspiration_ids>  (82) 
[93, 127]

>  <energy_score>  (82) 
845.6273045051112

>  <distance_score>  (82) 
11.12969105176448

>  <path>  (82) 
/opt/xchem-fragalysis-2/maxwin/BulkDock/SCRATCH/511023/C30257-P127/C30257-P127.minimised.mol

>  <scratch_subdir>  (82) 
/opt/xchem-fragalysis-2/maxwin/BulkDock/SCRATCH/511023/C30257-P127

>  <fragmenstein_runtime>  (82) 
12.178940534591675

>  <fragmenstein_outcome>  (82) 
too moved

>  <fragmenstein_mode>  (82) 
expansion

>  <fragmenstein_error>  (82) 


$$$$
C30258-P93
     RDKit          3D

 40 42  0  0  0  0  0  0  0  0999 V2000
    1.3863    1.9268   17.5014 C   0  0  0  0  0  0  0  0  0  0  0  0
    2.1616    2.5598   16.3790 N   0  0  0  0  0  0  0  0  0  0  0  0
    3.3581    2.1953   17.2985 C   0  0  0  0  0  0  0  0  0  0  0  0
    4.6890    2.7912   16.7417 C   0  0  0  0  0  0  0  0  0  0  0  0
    5.8030    1.8604   16.5554 N   0  0  0  0  0  0  0  0  0  0  0  0
    7.1924    1.9548   16.9458 C   0  0  0  0  0  0  0  0  0  0  0  0
    7.7650    2.7814   17.5905 O   0  0  0  0  0  0  0  0  0  0  0  0
    8.0579    0.8687   16.3414 C   0  0  0  0  0  0  0  0  0  0  0  0
    7.6570   -0.3063   15.7149 C   0  0  0  0  0  0  0  0  0  0  0  0
    8.7507   -0.9356   15.1711 N   0  0  0  0  0  0  0  0  0  0  0  0
    9.8941   -0.2402   15.4671 C   0  0  0  0  0  0  0  0  0  0  0  0
   11.2208   -0.5396   15.1299 C   0  0  0  0  0  0  0  0  0  0  0  0
   12.1938    0.4138   15.4209 C   0  0  0  0  0  0  0  0  0  0  0  0
   11.8427    1.6254   16.0070 C   0  0  0  0  0  0  0  0  0  0  0  0
   10.5069    1.8976   16.3519 C   0  0  0  0  0  0  0  0  0  0  0  0
    9.5000    0.9318   16.1147 C   0  0  0  0  0  0  0  0  0  0  0  0
    1.5913    3.8370   16.0424 C   0  0  0  0  0  0  0  0  0  0  0  0
    1.8422    4.9380   16.4592 O   0  0  0  0  0  0  0  0  0  0  0  0
    0.4475    3.7367   15.0493 C   0  0  0  0  0  0  0  0  0  0  0  0
   -0.1606    4.8349   14.3557 C   0  0  0  0  0  0  0  0  0  0  0  0
   -1.1599    4.3054   13.5774 C   0  0  0  0  0  0  0  0  0  0  0  0
   -1.1680    2.9819   13.8732 N   0  0  0  0  0  0  0  0  0  0  0  0
   -0.2043    2.6000   14.7251 N   0  0  0  0  0  0  0  0  0  0  0  0
    1.3471    2.5471   18.4094 H   0  0  0  0  0  0  0  0  0  0  0  0
    0.3361    1.9119   17.1790 H   0  0  0  0  0  0  0  0  0  0  0  0
    1.5998    0.8626   17.6765 H   0  0  0  0  0  0  0  0  0  0  0  0
    3.2843    2.6613   18.2949 H   0  0  0  0  0  0  0  0  0  0  0  0
    3.5035    1.1082   17.3662 H   0  0  0  0  0  0  0  0  0  0  0  0
    4.5213    3.2422   15.7575 H   0  0  0  0  0  0  0  0  0  0  0  0
    5.0413    3.5906   17.4037 H   0  0  0  0  0  0  0  0  0  0  0  0
    5.6865    1.0685   15.9401 H   0  0  0  0  0  0  0  0  0  0  0  0
    6.6777   -0.7295   15.5403 H   0  0  0  0  0  0  0  0  0  0  0  0
    8.7328   -1.7237   14.5278 H   0  0  0  0  0  0  0  0  0  0  0  0
   11.4781   -1.4601   14.6129 H   0  0  0  0  0  0  0  0  0  0  0  0
   13.2315    0.2214   15.1584 H   0  0  0  0  0  0  0  0  0  0  0  0
   12.6070    2.3724   16.2104 H   0  0  0  0  0  0  0  0  0  0  0  0
   10.2558    2.8483   16.8182 H   0  0  0  0  0  0  0  0  0  0  0  0
    0.1404    5.8722   14.4150 H   0  0  0  0  0  0  0  0  0  0  0  0
   -1.8347    4.7516   12.8615 H   0  0  0  0  0  0  0  0  0  0  0  0
   -1.7948    2.2705   13.5217 H   0  0  0  0  0  0  0  0  0  0  0  0
  1  2  1  0
  2  3  1  0
  3  4  1  0
  4  5  1  0
  5  6  1  0
  6  7  2  0
  6  8  1  0
  8  9  2  0
  9 10  1  0
 10 11  1  0
 11 12  2  0
 12 13  1  0
 13 14  2  0
 14 15  1  0
 15 16  2  0
  2 17  1  0
 17 18  2  0
 17 19  1  0
 19 20  1  0
 20 21  2  0
 21 22  1  0
 22 23  1  0
 16  8  1  0
 23 19  2  0
 16 11  1  0
  1 24  1  0
  1 25  1  0
  1 26  1  0
  3 27  1  0
  3 28  1  0
  4 29  1  0
  4 30  1  0
  5 31  1  0
  9 32  1  0
 10 33  1  0
 12 34  1  0
 13 35  1  0
 14 36  1  0
 15 37  1  0
 20 38  1  0
 21 39  1  0
 22 40  1  0
M  END
>  <Energy>  (83) 
135.98647074481028

>  <compound_id>  (83) 
30258

>  <target_id>  (83) 
1

>  <reference_id>  (83) 
93

>  <inspiration_ids>  (83) 
[93, 127]

>  <energy_score>  (83) 
52.07076872272154

>  <distance_score>  (83) 
10.055631148613436

>  <path>  (83) 
/opt/xchem-fragalysis-2/maxwin/BulkDock/SCRATCH/511023/C30258-P93/C30258-P93.minimised.mol

>  <scratch_subdir>  (83) 
/opt/xchem-fragalysis-2/maxwin/BulkDock/SCRATCH/511023/C30258-P93

>  <fragmenstein_runtime>  (83) 
10.49681043624878

>  <fragmenstein_outcome>  (83) 
too moved

>  <fragmenstein_mode>  (83) 
expansion

>  <fragmenstein_error>  (83) 


$$$$
C30258-P127
     RDKit          3D

 40 42  0  0  0  0  0  0  0  0999 V2000
   -0.8366    1.9502   15.3163 C   0  0  0  0  0  0  0  0  0  0  0  0
   -0.5842    1.5833   13.8997 N   0  0  0  0  0  0  0  0  0  0  0  0
    0.5516    2.7093   14.0909 C   0  0  0  0  0  0  0  0  0  0  0  0
    1.4823    3.2126   15.3414 C   0  0  0  0  0  0  0  0  0  0  0  0
    2.7141    2.5715   15.8206 N   0  0  0  0  0  0  0  0  0  0  0  0
    3.9800    3.1513   16.2819 C   0  0  0  0  0  0  0  0  0  0  0  0
    4.3517    4.2883   16.3069 O   0  0  0  0  0  0  0  0  0  0  0  0
    4.9583    2.1430   16.8304 C   0  0  0  0  0  0  0  0  0  0  0  0
    4.6564    0.9826   17.5261 C   0  0  0  0  0  0  0  0  0  0  0  0
    5.7929    0.2207   17.6455 N   0  0  0  0  0  0  0  0  0  0  0  0
    6.8837    0.9185   17.1959 C   0  0  0  0  0  0  0  0  0  0  0  0
    8.2247    0.5317   17.0554 C   0  0  0  0  0  0  0  0  0  0  0  0
    9.1684    1.5113   16.7500 C   0  0  0  0  0  0  0  0  0  0  0  0
    8.7692    2.8262   16.5469 C   0  0  0  0  0  0  0  0  0  0  0  0
    7.4049    3.1698   16.5591 C   0  0  0  0  0  0  0  0  0  0  0  0
    6.4209    2.1968   16.8628 C   0  0  0  0  0  0  0  0  0  0  0  0
   -2.0881    1.5385   12.9922 C   0  0  0  0  0  0  0  0  0  0  0  0
   -2.3027    2.5947   12.5216 O   0  0  0  0  0  0  0  0  0  0  0  0
   -3.3350   -0.0190   12.5215 C   0  0  0  0  0  0  0  0  0  0  0  0
   -4.1014   -0.2570   10.6244 C   0  0  0  0  0  0  0  0  0  0  0  0
   -5.6311   -0.3670    9.8945 C   0  0  0  0  0  0  0  0  0  0  0  0
   -5.9218   -0.3951   11.7688 N   0  0  0  0  0  0  0  0  0  0  0  0
   -4.6215   -0.5444   12.1059 N   0  0  0  0  0  0  0  0  0  0  0  0
   -0.8715    3.0263   15.5163 H   0  0  0  0  0  0  0  0  0  0  0  0
   -1.8875    1.7544   15.4478 H   0  0  0  0  0  0  0  0  0  0  0  0
   -0.1989    1.4385   16.0475 H   0  0  0  0  0  0  0  0  0  0  0  0
    0.0721    3.6156   13.6830 H   0  0  0  0  0  0  0  0  0  0  0  0
    1.2776    2.4195   13.3196 H   0  0  0  0  0  0  0  0  0  0  0  0
    1.8253    4.2075   15.0241 H   0  0  0  0  0  0  0  0  0  0  0  0
    0.9043    3.4137   16.2488 H   0  0  0  0  0  0  0  0  0  0  0  0
    2.7741    1.5666   15.8699 H   0  0  0  0  0  0  0  0  0  0  0  0
    3.7076    0.5914   17.8717 H   0  0  0  0  0  0  0  0  0  0  0  0
    5.8127   -0.7115   18.0322 H   0  0  0  0  0  0  0  0  0  0  0  0
    8.5297   -0.4932   17.1791 H   0  0  0  0  0  0  0  0  0  0  0  0
   10.2220    1.2547   16.6740 H   0  0  0  0  0  0  0  0  0  0  0  0
    9.5086    3.5906   16.3198 H   0  0  0  0  0  0  0  0  0  0  0  0
    7.0992    4.1848   16.3138 H   0  0  0  0  0  0  0  0  0  0  0  0
   -3.3962   -0.1804    9.7695 H   0  0  0  0  0  0  0  0  0  0  0  0
   -6.7201   -0.3772    9.8698 H   0  0  0  0  0  0  0  0  0  0  0  0
   -6.6460    0.1825   12.1936 H   0  0  0  0  0  0  0  0  0  0  0  0
  1  2  1  0
  2  3  1  0
  3  4  1  0
  4  5  1  0
  5  6  1  0
  6  7  2  0
  6  8  1  0
  8  9  2  0
  9 10  1  0
 10 11  1  0
 11 12  2  0
 12 13  1  0
 13 14  2  0
 14 15  1  0
 15 16  2  0
  2 17  1  0
 17 18  2  0
 17 19  1  0
 19 20  1  0
 20 21  2  0
 21 22  1  0
 22 23  1  0
 16  8  1  0
 23 19  2  0
 16 11  1  0
  1 24  1  0
  1 25  1  0
  1 26  1  0
  3 27  1  0
  3 28  1  0
  4 29  1  0
  4 30  1  0
  5 31  1  0
  9 32  1  0
 10 33  1  0
 12 34  1  0
 13 35  1  0
 14 36  1  0
 15 37  1  0
 20 38  1  0
 21 39  1  0
 22 40  1  0
M  END
>  <Energy>  (84) 
750.87193941203134

>  <compound_id>  (84) 
30258

>  <target_id>  (84) 
1

>  <reference_id>  (84) 
127

>  <inspiration_ids>  (84) 
[93, 127]

>  <energy_score>  (84) 
666.9562373899425

>  <distance_score>  (84) 
9.685052347317109

>  <path>  (84) 
/opt/xchem-fragalysis-2/maxwin/BulkDock/SCRATCH/511023/C30258-P127/C30258-P127.minimised.mol

>  <scratch_subdir>  (84) 
/opt/xchem-fragalysis-2/maxwin/BulkDock/SCRATCH/511023/C30258-P127

>  <fragmenstein_runtime>  (84) 
6.605160236358643

>  <fragmenstein_outcome>  (84) 
too moved

>  <fragmenstein_mode>  (84) 
expansion

>  <fragmenstein_error>  (84) 


$$$$
C30260-P93
     RDKit          3D

 43 45  0  0  0  0  0  0  0  0999 V2000
   -1.4355    2.2172   13.9318 C   0  0  0  0  0  0  0  0  0  0  0  0
   -2.4338    1.6549   13.2343 N   0  0  0  0  0  0  0  0  0  0  0  0
   -0.6060    2.0819   13.9360 C   0  0  0  0  0  0  0  0  0  0  0  0
    0.1434    2.0993   15.6004 C   0  0  0  0  0  0  0  0  0  0  0  0
    1.4536    1.3675   15.6346 N   0  0  0  0  0  0  0  0  0  0  0  0
    2.1606    0.7297   16.7336 C   0  0  0  0  0  0  0  0  0  0  0  0
    1.9139    0.6955   17.9034 O   0  0  0  0  0  0  0  0  0  0  0  0
    3.4146    0.0410   16.2618 C   0  0  0  0  0  0  0  0  0  0  0  0
    3.5135   -0.7832   15.1488 C   0  0  0  0  0  0  0  0  0  0  0  0
    4.8393   -1.0217   14.8791 N   0  0  0  0  0  0  0  0  0  0  0  0
    5.3129   -1.7547   13.7259 C   0  0  0  0  0  0  0  0  0  0  0  0
    5.6461   -0.3837   15.7964 C   0  0  0  0  0  0  0  0  0  0  0  0
    7.0469   -0.2283   15.8307 C   0  0  0  0  0  0  0  0  0  0  0  0
    7.5911    0.5718   16.8366 C   0  0  0  0  0  0  0  0  0  0  0  0
    6.7738    1.1113   17.8245 C   0  0  0  0  0  0  0  0  0  0  0  0
    5.3858    0.9060   17.8079 C   0  0  0  0  0  0  0  0  0  0  0  0
    4.7877    0.1807   16.7523 C   0  0  0  0  0  0  0  0  0  0  0  0
   -2.8800   -0.0981   12.6110 C   0  0  0  0  0  0  0  0  0  0  0  0
   -2.2825   -1.0825   12.6381 O   0  0  0  0  0  0  0  0  0  0  0  0
   -4.5251   -0.3741   11.6332 C   0  0  0  0  0  0  0  0  0  0  0  0
   -4.7440   -0.7192   10.0220 C   0  0  0  0  0  0  0  0  0  0  0  0
   -6.0561   -1.0862    9.8336 C   0  0  0  0  0  0  0  0  0  0  0  0
   -6.6352   -1.0263   11.0605 N   0  0  0  0  0  0  0  0  0  0  0  0
   -5.8447   -0.6598   12.1090 N   0  0  0  0  0  0  0  0  0  0  0  0
   -1.7311    3.2910   14.5426 H   0  0  0  0  0  0  0  0  0  0  0  0
   -1.7302    3.1642   13.1345 H   0  0  0  0  0  0  0  0  0  0  0  0
   -2.1116    1.9232   14.8972 H   0  0  0  0  0  0  0  0  0  0  0  0
    0.0193    1.1332   13.7654 H   0  0  0  0  0  0  0  0  0  0  0  0
    0.0870    2.8778   13.2844 H   0  0  0  0  0  0  0  0  0  0  0  0
    0.3547    3.1497   15.8303 H   0  0  0  0  0  0  0  0  0  0  0  0
   -0.5078    1.6905   16.3685 H   0  0  0  0  0  0  0  0  0  0  0  0
    1.9984    1.2592   14.7818 H   0  0  0  0  0  0  0  0  0  0  0  0
    2.7442   -1.1566   14.4848 H   0  0  0  0  0  0  0  0  0  0  0  0
    4.5296   -2.4360   13.3841 H   0  0  0  0  0  0  0  0  0  0  0  0
    5.5635   -1.0380   12.9407 H   0  0  0  0  0  0  0  0  0  0  0  0
    6.1928   -2.3302   14.0187 H   0  0  0  0  0  0  0  0  0  0  0  0
    7.6776   -0.6469   15.0495 H   0  0  0  0  0  0  0  0  0  0  0  0
    8.6562    0.7854   16.8276 H   0  0  0  0  0  0  0  0  0  0  0  0
    7.1889    1.7503   18.5968 H   0  0  0  0  0  0  0  0  0  0  0  0
    4.7549    1.3787   18.5577 H   0  0  0  0  0  0  0  0  0  0  0  0
   -3.9750   -0.6146    9.2641 H   0  0  0  0  0  0  0  0  0  0  0  0
   -6.6137   -1.3667    8.9517 H   0  0  0  0  0  0  0  0  0  0  0  0
   -7.5994   -1.2557   11.2694 H   0  0  0  0  0  0  0  0  0  0  0  0
  1  2  1  0
  2  3  1  0
  3  4  1  0
  4  5  1  0
  5  6  1  0
  6  7  2  0
  6  8  1  0
  8  9  2  0
  9 10  1  0
 10 11  1  0
 10 12  1  0
 12 13  2  0
 13 14  1  0
 14 15  2  0
 15 16  1  0
 16 17  2  0
  2 18  1  0
 18 19  2  0
 18 20  1  0
 20 21  1  0
 21 22  2  0
 22 23  1  0
 23 24  1  0
 17  8  1  0
 24 20  2  0
 17 12  1  0
  1 25  1  0
  1 26  1  0
  1 27  1  0
  3 28  1  0
  3 29  1  0
  4 30  1  0
  4 31  1  0
  5 32  1  0
  9 33  1  0
 11 34  1  0
 11 35  1  0
 11 36  1  0
 13 37  1  0
 14 38  1  0
 15 39  1  0
 16 40  1  0
 21 41  1  0
 22 42  1  0
 23 43  1  0
M  END
>  <Energy>  (85) 
981.66802191043996

>  <compound_id>  (85) 
30260

>  <target_id>  (85) 
1

>  <reference_id>  (85) 
93

>  <inspiration_ids>  (85) 
[93, 127]

>  <energy_score>  (85) 
899.5662548343269

>  <distance_score>  (85) 
10.119232651396128

>  <path>  (85) 
/opt/xchem-fragalysis-2/maxwin/BulkDock/SCRATCH/511023/C30260-P93/C30260-P93.minimised.mol

>  <scratch_subdir>  (85) 
/opt/xchem-fragalysis-2/maxwin/BulkDock/SCRATCH/511023/C30260-P93

>  <fragmenstein_runtime>  (85) 
10.76485300064087

>  <fragmenstein_outcome>  (85) 
too moved

>  <fragmenstein_mode>  (85) 
expansion

>  <fragmenstein_error>  (85) 


$$$$
C30260-P127
     RDKit          3D

 43 45  0  0  0  0  0  0  0  0999 V2000
    4.4475    3.1097   17.0287 C   0  0  0  0  0  0  0  0  0  0  0  0
    3.3458    2.9499   16.3592 N   0  0  0  0  0  0  0  0  0  0  0  0
    5.2471    3.0257   16.8830 C   0  0  0  0  0  0  0  0  0  0  0  0
    6.0522    1.6359   17.6397 C   0  0  0  0  0  0  0  0  0  0  0  0
    7.4330    1.3967   17.2119 N   0  0  0  0  0  0  0  0  0  0  0  0
    8.4491    2.3025   16.7652 C   0  0  0  0  0  0  0  0  0  0  0  0
    8.4056    3.4766   16.5519 O   0  0  0  0  0  0  0  0  0  0  0  0
    9.7820    1.6328   16.5942 C   0  0  0  0  0  0  0  0  0  0  0  0
   10.9595    2.3469   16.7723 C   0  0  0  0  0  0  0  0  0  0  0  0
   12.0354    1.5207   16.6378 N   0  0  0  0  0  0  0  0  0  0  0  0
   13.4108    1.9300   16.8169 C   0  0  0  0  0  0  0  0  0  0  0  0
   11.6191    0.2573   16.2944 C   0  0  0  0  0  0  0  0  0  0  0  0
   12.3733   -0.9035   16.0411 C   0  0  0  0  0  0  0  0  0  0  0  0
   11.7018   -2.0529   15.6426 C   0  0  0  0  0  0  0  0  0  0  0  0
   10.3251   -2.0334   15.4978 C   0  0  0  0  0  0  0  0  0  0  0  0
    9.5744   -0.8836   15.7923 C   0  0  0  0  0  0  0  0  0  0  0  0
   10.2151    0.2986   16.2200 C   0  0  0  0  0  0  0  0  0  0  0  0
    2.8280    3.3848   14.9390 C   0  0  0  0  0  0  0  0  0  0  0  0
    3.3514    3.8946   14.0408 O   0  0  0  0  0  0  0  0  0  0  0  0
    1.3535    3.0948   14.7978 C   0  0  0  0  0  0  0  0  0  0  0  0
    0.5404    3.4861   13.6818 C   0  0  0  0  0  0  0  0  0  0  0  0
   -0.7127    2.9894   13.9266 C   0  0  0  0  0  0  0  0  0  0  0  0
   -0.6269    2.3682   15.1320 N   0  0  0  0  0  0  0  0  0  0  0  0
    0.5962    2.4202   15.6881 N   0  0  0  0  0  0  0  0  0  0  0  0
    4.0743    4.3284   16.9459 H   0  0  0  0  0  0  0  0  0  0  0  0
    4.2058    3.5455   18.2263 H   0  0  0  0  0  0  0  0  0  0  0  0
    3.8890    2.2107   17.6945 H   0  0  0  0  0  0  0  0  0  0  0  0
    5.7239    2.8604   15.7802 H   0  0  0  0  0  0  0  0  0  0  0  0
    5.9179    4.0718   17.0570 H   0  0  0  0  0  0  0  0  0  0  0  0
    6.0629    1.8102   18.7217 H   0  0  0  0  0  0  0  0  0  0  0  0
    5.4787    0.7283   17.4171 H   0  0  0  0  0  0  0  0  0  0  0  0
    7.8473    0.4869   17.3639 H   0  0  0  0  0  0  0  0  0  0  0  0
   11.0898    3.3898   17.0378 H   0  0  0  0  0  0  0  0  0  0  0  0
   13.8461    1.3326   17.6221 H   0  0  0  0  0  0  0  0  0  0  0  0
   13.4475    2.9896   17.0829 H   0  0  0  0  0  0  0  0  0  0  0  0
   13.9459    1.7658   15.8782 H   0  0  0  0  0  0  0  0  0  0  0  0
   13.4563   -0.9013   16.1207 H   0  0  0  0  0  0  0  0  0  0  0  0
   12.2598   -2.9565   15.4103 H   0  0  0  0  0  0  0  0  0  0  0  0
    9.8167   -2.9149   15.1116 H   0  0  0  0  0  0  0  0  0  0  0  0
    8.5034   -0.9102   15.6124 H   0  0  0  0  0  0  0  0  0  0  0  0
    0.8691    4.0348   12.8094 H   0  0  0  0  0  0  0  0  0  0  0  0
   -1.6135    3.0026   13.3404 H   0  0  0  0  0  0  0  0  0  0  0  0
   -1.3479    1.8496   15.6320 H   0  0  0  0  0  0  0  0  0  0  0  0
  1  2  1  0
  2  3  1  0
  3  4  1  0
  4  5  1  0
  5  6  1  0
  6  7  2  0
  6  8  1  0
  8  9  2  0
  9 10  1  0
 10 11  1  0
 10 12  1  0
 12 13  2  0
 13 14  1  0
 14 15  2  0
 15 16  1  0
 16 17  2  0
  2 18  1  0
 18 19  2  0
 18 20  1  0
 20 21  1  0
 21 22  2  0
 22 23  1  0
 23 24  1  0
 17  8  1  0
 24 20  2  0
 17 12  1  0
  1 25  1  0
  1 26  1  0
  1 27  1  0
  3 28  1  0
  3 29  1  0
  4 30  1  0
  4 31  1  0
  5 32  1  0
  9 33  1  0
 11 34  1  0
 11 35  1  0
 11 36  1  0
 13 37  1  0
 14 38  1  0
 15 39  1  0
 16 40  1  0
 21 41  1  0
 22 42  1  0
 23 43  1  0
M  END
>  <Energy>  (86) 
820.08367028009388

>  <compound_id>  (86) 
30260

>  <target_id>  (86) 
1

>  <reference_id>  (86) 
127

>  <inspiration_ids>  (86) 
[93, 127]

>  <energy_score>  (86) 
737.9819032039879

>  <distance_score>  (86) 
9.864081441341726

>  <path>  (86) 
/opt/xchem-fragalysis-2/maxwin/BulkDock/SCRATCH/511023/C30260-P127/C30260-P127.minimised.mol

>  <scratch_subdir>  (86) 
/opt/xchem-fragalysis-2/maxwin/BulkDock/SCRATCH/511023/C30260-P127

>  <fragmenstein_runtime>  (86) 
9.718374490737915

>  <fragmenstein_outcome>  (86) 
too moved

>  <fragmenstein_mode>  (86) 
expansion

>  <fragmenstein_error>  (86) 


$$$$
C30261-P93
     RDKit          3D

 40 42  0  0  0  0  0  0  0  0999 V2000
    3.8570   -3.7684    9.8113 C   0  0  0  0  0  0  0  0  0  0  0  0
    3.6621   -2.3538    9.3999 N   0  0  0  0  0  0  0  0  0  0  0  0
    5.2102   -2.2498    9.8649 C   0  0  0  0  0  0  0  0  0  0  0  0
    5.5317   -0.8289   10.5789 C   0  0  0  0  0  0  0  0  0  0  0  0
    6.4498   -0.7471   11.7709 N   0  0  0  0  0  0  0  0  0  0  0  0
    6.5494    0.2492   12.8331 C   0  0  0  0  0  0  0  0  0  0  0  0
    5.8727    1.2102   13.0674 O   0  0  0  0  0  0  0  0  0  0  0  0
    7.6688    0.0482   13.8496 C   0  0  0  0  0  0  0  0  0  0  0  0
    7.3119   -0.3717   15.1213 C   0  0  0  0  0  0  0  0  0  0  0  0
    8.3941   -0.2820   15.9371 N   0  0  0  0  0  0  0  0  0  0  0  0
    9.5438   -0.0975   15.2302 C   0  0  0  0  0  0  0  0  0  0  0  0
   10.8924   -0.2199   15.6170 C   0  0  0  0  0  0  0  0  0  0  0  0
   11.8783    0.2953   14.7908 C   0  0  0  0  0  0  0  0  0  0  0  0
   11.5002    0.9720   13.6590 C   0  0  0  0  0  0  0  0  0  0  0  0
   12.4355    1.5494   12.8920 F   0  0  0  0  0  0  0  0  0  0  0  0
   10.1558    1.0655   13.2758 C   0  0  0  0  0  0  0  0  0  0  0  0
    9.1159    0.4120   13.9962 C   0  0  0  0  0  0  0  0  0  0  0  0
    2.4859   -1.8319    9.9880 C   0  0  0  0  0  0  0  0  0  0  0  0
    2.3341   -1.2587   11.0244 O   0  0  0  0  0  0  0  0  0  0  0  0
    1.0277   -2.1052    9.2656 C   0  0  0  0  0  0  0  0  0  0  0  0
    0.3844   -2.7788    7.8261 C   0  0  0  0  0  0  0  0  0  0  0  0
   -1.0273   -2.3394    7.5263 C   0  0  0  0  0  0  0  0  0  0  0  0
   -1.5737   -1.1752    8.6807 N   0  0  0  0  0  0  0  0  0  0  0  0
   -0.2180   -1.3217    9.9544 N   0  0  0  0  0  0  0  0  0  0  0  0
    2.9357   -4.2908    9.5130 H   0  0  0  0  0  0  0  0  0  0  0  0
    3.8829   -3.9078   10.9033 H   0  0  0  0  0  0  0  0  0  0  0  0
    4.6422   -4.3027    9.2549 H   0  0  0  0  0  0  0  0  0  0  0  0
    5.8150   -2.3380    8.9531 H   0  0  0  0  0  0  0  0  0  0  0  0
    5.5681   -2.9652   10.6205 H   0  0  0  0  0  0  0  0  0  0  0  0
    4.6077   -0.3411   10.8968 H   0  0  0  0  0  0  0  0  0  0  0  0
    5.9771   -0.1737    9.8216 H   0  0  0  0  0  0  0  0  0  0  0  0
    7.2402   -1.3725   11.8307 H   0  0  0  0  0  0  0  0  0  0  0  0
    6.3296   -0.5980   15.5147 H   0  0  0  0  0  0  0  0  0  0  0  0
    8.3354   -0.2312   16.9371 H   0  0  0  0  0  0  0  0  0  0  0  0
   11.2031   -0.7018   16.5293 H   0  0  0  0  0  0  0  0  0  0  0  0
   12.9282    0.2177   15.0515 H   0  0  0  0  0  0  0  0  0  0  0  0
    9.9965    1.6447   12.3836 H   0  0  0  0  0  0  0  0  0  0  0  0
    1.0154   -3.3676    7.1761 H   0  0  0  0  0  0  0  0  0  0  0  0
   -1.7822   -2.5038    6.7744 H   0  0  0  0  0  0  0  0  0  0  0  0
   -2.5215   -1.0100    9.0048 H   0  0  0  0  0  0  0  0  0  0  0  0
  1  2  1  0
  2  3  1  0
  3  4  1  0
  4  5  1  0
  5  6  1  0
  6  7  2  0
  6  8  1  0
  8  9  2  0
  9 10  1  0
 10 11  1  0
 11 12  2  0
 12 13  1  0
 13 14  2  0
 14 15  1  0
 14 16  1  0
 16 17  2  0
  2 18  1  0
 18 19  2  0
 18 20  1  0
 20 21  1  0
 21 22  2  0
 22 23  1  0
 23 24  1  0
 17  8  1  0
 24 20  2  0
 17 11  1  0
  1 25  1  0
  1 26  1  0
  1 27  1  0
  3 28  1  0
  3 29  1  0
  4 30  1  0
  4 31  1  0
  5 32  1  0
  9 33  1  0
 10 34  1  0
 12 35  1  0
 13 36  1  0
 16 37  1  0
 21 38  1  0
 22 39  1  0
 23 40  1  0
M  END
>  <Energy>  (87) 
340.51030682576538

>  <compound_id>  (87) 
30261

>  <target_id>  (87) 
1

>  <reference_id>  (87) 
93

>  <inspiration_ids>  (87) 
[93, 127]

>  <energy_score>  (87) 
253.7101478516035

>  <distance_score>  (87) 
10.074593374978878

>  <path>  (87) 
/opt/xchem-fragalysis-2/maxwin/BulkDock/SCRATCH/511023/C30261-P93/C30261-P93.minimised.mol

>  <scratch_subdir>  (87) 
/opt/xchem-fragalysis-2/maxwin/BulkDock/SCRATCH/511023/C30261-P93

>  <fragmenstein_runtime>  (87) 
10.49313998222351

>  <fragmenstein_outcome>  (87) 
too moved

>  <fragmenstein_mode>  (87) 
expansion

>  <fragmenstein_error>  (87) 


$$$$
C30261-P127
     RDKit          3D

 40 42  0  0  0  0  0  0  0  0999 V2000
    1.2811    2.0640   13.7236 C   0  0  0  0  0  0  0  0  0  0  0  0
   -0.0460    1.8704   14.3461 N   0  0  0  0  0  0  0  0  0  0  0  0
    0.5614    2.8581   15.4104 C   0  0  0  0  0  0  0  0  0  0  0  0
    1.9830    3.5537   15.7209 C   0  0  0  0  0  0  0  0  0  0  0  0
    3.0813    2.8036   16.3552 N   0  0  0  0  0  0  0  0  0  0  0  0
    4.3740    3.2498   16.8606 C   0  0  0  0  0  0  0  0  0  0  0  0
    4.8339    4.3489   16.9586 O   0  0  0  0  0  0  0  0  0  0  0  0
    5.2859    2.1143   17.2305 C   0  0  0  0  0  0  0  0  0  0  0  0
    4.9089    0.8637   17.6856 C   0  0  0  0  0  0  0  0  0  0  0  0
    5.9922    0.0258   17.6396 N   0  0  0  0  0  0  0  0  0  0  0  0
    7.1225    0.7130   17.2759 C   0  0  0  0  0  0  0  0  0  0  0  0
    8.4172    0.2569   16.9613 C   0  0  0  0  0  0  0  0  0  0  0  0
    9.4064    1.2073   16.7017 C   0  0  0  0  0  0  0  0  0  0  0  0
    9.0911    2.5583   16.7204 C   0  0  0  0  0  0  0  0  0  0  0  0
   10.0467    3.4552   16.4418 F   0  0  0  0  0  0  0  0  0  0  0  0
    7.7791    3.0036   16.9355 C   0  0  0  0  0  0  0  0  0  0  0  0
    6.7480    2.0638   17.1903 C   0  0  0  0  0  0  0  0  0  0  0  0
   -1.1281    2.0775   13.3341 C   0  0  0  0  0  0  0  0  0  0  0  0
   -1.7292    3.0790   13.0324 O   0  0  0  0  0  0  0  0  0  0  0  0
   -1.7525    0.5956   12.4912 C   0  0  0  0  0  0  0  0  0  0  0  0
   -2.9432   -0.3904   12.5415 C   0  0  0  0  0  0  0  0  0  0  0  0
   -3.9821   -0.5006   10.9346 C   0  0  0  0  0  0  0  0  0  0  0  0
   -4.3899   -0.1570   12.0154 N   0  0  0  0  0  0  0  0  0  0  0  0
   -3.0460    0.6021   12.8989 N   0  0  0  0  0  0  0  0  0  0  0  0
    1.3612    3.0085   13.1687 H   0  0  0  0  0  0  0  0  0  0  0  0
    2.1405    1.8005   14.3414 H   0  0  0  0  0  0  0  0  0  0  0  0
    1.4168    1.2692   12.9916 H   0  0  0  0  0  0  0  0  0  0  0  0
    0.2711    2.3693   16.3518 H   0  0  0  0  0  0  0  0  0  0  0  0
   -0.1213    3.7165   15.3145 H   0  0  0  0  0  0  0  0  0  0  0  0
    1.7778    4.3697   16.4264 H   0  0  0  0  0  0  0  0  0  0  0  0
    2.3954    4.0485   14.8341 H   0  0  0  0  0  0  0  0  0  0  0  0
    3.0621    1.7938   16.3435 H   0  0  0  0  0  0  0  0  0  0  0  0
    3.9379    0.4709   17.9612 H   0  0  0  0  0  0  0  0  0  0  0  0
    5.9299   -0.9661   17.8084 H   0  0  0  0  0  0  0  0  0  0  0  0
    8.6395   -0.7957   16.8606 H   0  0  0  0  0  0  0  0  0  0  0  0
   10.4213    0.9063   16.4606 H   0  0  0  0  0  0  0  0  0  0  0  0
    7.5517    4.0628   16.8528 H   0  0  0  0  0  0  0  0  0  0  0  0
   -2.4438   -1.3223   12.9206 H   0  0  0  0  0  0  0  0  0  0  0  0
   -3.8321   -0.0914    9.9216 H   0  0  0  0  0  0  0  0  0  0  0  0
   -5.3282    0.0008   12.4159 H   0  0  0  0  0  0  0  0  0  0  0  0
  1  2  1  0
  2  3  1  0
  3  4  1  0
  4  5  1  0
  5  6  1  0
  6  7  2  0
  6  8  1  0
  8  9  2  0
  9 10  1  0
 10 11  1  0
 11 12  2  0
 12 13  1  0
 13 14  2  0
 14 15  1  0
 14 16  1  0
 16 17  2  0
  2 18  1  0
 18 19  2  0
 18 20  1  0
 20 21  1  0
 21 22  2  0
 22 23  1  0
 23 24  1  0
 17  8  1  0
 24 20  2  0
 17 11  1  0
  1 25  1  0
  1 26  1  0
  1 27  1  0
  3 28  1  0
  3 29  1  0
  4 30  1  0
  4 31  1  0
  5 32  1  0
  9 33  1  0
 10 34  1  0
 12 35  1  0
 13 36  1  0
 16 37  1  0
 21 38  1  0
 22 39  1  0
 23 40  1  0
M  END
>  <Energy>  (88) 
657.36302931372427

>  <compound_id>  (88) 
30261

>  <target_id>  (88) 
1

>  <reference_id>  (88) 
127

>  <inspiration_ids>  (88) 
[93, 127]

>  <energy_score>  (88) 
570.5628703395513

>  <distance_score>  (88) 
10.054654322093858

>  <path>  (88) 
/opt/xchem-fragalysis-2/maxwin/BulkDock/SCRATCH/511023/C30261-P127/C30261-P127.minimised.mol

>  <scratch_subdir>  (88) 
/opt/xchem-fragalysis-2/maxwin/BulkDock/SCRATCH/511023/C30261-P127

>  <fragmenstein_runtime>  (88) 
5.994539499282837

>  <fragmenstein_outcome>  (88) 
too moved

>  <fragmenstein_mode>  (88) 
expansion

>  <fragmenstein_error>  (88) 


$$$$
C30263-P93
     RDKit          3D

 43 45  0  0  0  0  0  0  0  0999 V2000
   10.0360   -3.0696   14.9190 C   0  0  0  0  0  0  0  0  0  0  0  0
    9.5108   -1.7309   15.2750 C   0  0  0  0  0  0  0  0  0  0  0  0
   10.4732   -1.0499   15.9690 N   0  0  0  0  0  0  0  0  0  0  0  0
   10.3900    0.2688   15.7327 C   0  0  0  0  0  0  0  0  0  0  0  0
   11.3908    1.2324   15.9708 C   0  0  0  0  0  0  0  0  0  0  0  0
   11.4670    2.3217   15.1273 C   0  0  0  0  0  0  0  0  0  0  0  0
   10.7009    2.2959   13.9926 C   0  0  0  0  0  0  0  0  0  0  0  0
    9.7586    1.2669   13.8230 C   0  0  0  0  0  0  0  0  0  0  0  0
    9.3473    0.3366   14.8071 C   0  0  0  0  0  0  0  0  0  0  0  0
    8.3951   -0.9053   14.9130 C   0  0  0  0  0  0  0  0  0  0  0  0
    6.9311   -1.3710   14.0291 C   0  0  0  0  0  0  0  0  0  0  0  0
    7.1902   -1.7515   12.9250 O   0  0  0  0  0  0  0  0  0  0  0  0
    5.5335   -1.2338   14.7382 N   0  0  0  0  0  0  0  0  0  0  0  0
    3.9941   -1.4634   14.1546 C   0  0  0  0  0  0  0  0  0  0  0  0
    2.6616   -0.2589   13.6535 C   0  0  0  0  0  0  0  0  0  0  0  0
    0.8587   -0.3865   13.7378 N   0  0  0  0  0  0  0  0  0  0  0  0
    1.2260   -1.7020   14.3192 C   0  0  0  0  0  0  0  0  0  0  0  0
   -0.4247   -0.5724   12.4490 C   0  0  0  0  0  0  0  0  0  0  0  0
    0.0159   -0.7231   11.3488 O   0  0  0  0  0  0  0  0  0  0  0  0
   -2.3966   -0.7578   12.5137 C   0  0  0  0  0  0  0  0  0  0  0  0
   -4.2145   -0.4889   11.7805 C   0  0  0  0  0  0  0  0  0  0  0  0
   -5.8337   -0.3805   11.6954 C   0  0  0  0  0  0  0  0  0  0  0  0
   -4.3028   -0.3009   10.9097 N   0  0  0  0  0  0  0  0  0  0  0  0
   -3.2715    0.1795   12.3487 N   0  0  0  0  0  0  0  0  0  0  0  0
   10.7466   -3.4656   15.6597 H   0  0  0  0  0  0  0  0  0  0  0  0
    9.1755   -3.7172   14.9101 H   0  0  0  0  0  0  0  0  0  0  0  0
   10.6396   -3.0734   14.0115 H   0  0  0  0  0  0  0  0  0  0  0  0
   11.3300   -1.4744   16.3012 H   0  0  0  0  0  0  0  0  0  0  0  0
   12.2139    1.0592   16.6579 H   0  0  0  0  0  0  0  0  0  0  0  0
   12.2477    3.0664   15.2525 H   0  0  0  0  0  0  0  0  0  0  0  0
   10.8974    2.9919   13.1817 H   0  0  0  0  0  0  0  0  0  0  0  0
    9.4997    1.0565   12.8127 H   0  0  0  0  0  0  0  0  0  0  0  0
    5.6585   -0.8043   15.6398 H   0  0  0  0  0  0  0  0  0  0  0  0
    3.5830   -2.0579   14.9741 H   0  0  0  0  0  0  0  0  0  0  0  0
    4.1355   -2.1002   13.2742 H   0  0  0  0  0  0  0  0  0  0  0  0
    2.8425    0.6255   14.2757 H   0  0  0  0  0  0  0  0  0  0  0  0
    2.8631   -0.0189   12.6061 H   0  0  0  0  0  0  0  0  0  0  0  0
    0.3309   -2.2969   14.5149 H   0  0  0  0  0  0  0  0  0  0  0  0
    1.9005   -2.3519   13.7745 H   0  0  0  0  0  0  0  0  0  0  0  0
    1.5953   -1.5127   15.3376 H   0  0  0  0  0  0  0  0  0  0  0  0
   -5.3618   -0.3100   12.5247 H   0  0  0  0  0  0  0  0  0  0  0  0
   -6.5840   -0.3363   10.8736 H   0  0  0  0  0  0  0  0  0  0  0  0
   -4.0037   -0.2220    9.8996 H   0  0  0  0  0  0  0  0  0  0  0  0
  1  2  1  0
  2  3  1  0
  3  4  1  0
  4  5  2  0
  5  6  1  0
  6  7  2  0
  7  8  1  0
  8  9  2  0
  9 10  1  0
 10 11  1  0
 11 12  2  0
 11 13  1  0
 13 14  1  0
 14 15  1  0
 15 16  1  0
 16 17  1  0
 16 18  1  0
 18 19  2  0
 18 20  1  0
 20 21  1  0
 21 22  2  0
 22 23  1  0
 23 24  1  0
 10  2  2  0
 24 20  2  0
  9  4  1  0
  1 25  1  0
  1 26  1  0
  1 27  1  0
  3 28  1  0
  5 29  1  0
  6 30  1  0
  7 31  1  0
  8 32  1  0
 13 33  1  0
 14 34  1  0
 14 35  1  0
 15 36  1  0
 15 37  1  0
 17 38  1  0
 17 39  1  0
 17 40  1  0
 21 41  1  0
 22 42  1  0
 23 43  1  0
M  END
>  <Energy>  (89) 
1170.1393681628617

>  <compound_id>  (89) 
30263

>  <target_id>  (89) 
1

>  <reference_id>  (89) 
93

>  <inspiration_ids>  (89) 
[93, 127]

>  <energy_score>  (89) 
1068.6659464523254

>  <distance_score>  (89) 
8.28430677673336

>  <path>  (89) 
/opt/xchem-fragalysis-2/maxwin/BulkDock/SCRATCH/511023/C30263-P93/C30263-P93.minimised.mol

>  <scratch_subdir>  (89) 
/opt/xchem-fragalysis-2/maxwin/BulkDock/SCRATCH/511023/C30263-P93

>  <fragmenstein_runtime>  (89) 
6.009063482284546

>  <fragmenstein_outcome>  (89) 
too moved

>  <fragmenstein_mode>  (89) 
expansion

>  <fragmenstein_error>  (89) 


$$$$
C30263-P127
     RDKit          3D

 43 45  0  0  0  0  0  0  0  0999 V2000
    5.0211    0.9020   18.5900 C   0  0  0  0  0  0  0  0  0  0  0  0
    6.0950    0.2643   17.7765 C   0  0  0  0  0  0  0  0  0  0  0  0
    7.3747    0.7532   17.7993 N   0  0  0  0  0  0  0  0  0  0  0  0
    8.2272    0.0113   17.0201 C   0  0  0  0  0  0  0  0  0  0  0  0
    9.5947    0.1963   16.7667 C   0  0  0  0  0  0  0  0  0  0  0  0
   10.2500   -0.7396   15.9740 C   0  0  0  0  0  0  0  0  0  0  0  0
    9.5359   -1.7714   15.3900 C   0  0  0  0  0  0  0  0  0  0  0  0
    8.1385   -1.8634   15.5351 C   0  0  0  0  0  0  0  0  0  0  0  0
    7.4512   -0.9805   16.4058 C   0  0  0  0  0  0  0  0  0  0  0  0
    6.0197   -0.7304   16.7992 C   0  0  0  0  0  0  0  0  0  0  0  0
    4.6725   -1.2174   16.2498 C   0  0  0  0  0  0  0  0  0  0  0  0
    3.7759   -1.2689   17.0388 O   0  0  0  0  0  0  0  0  0  0  0  0
    4.6892   -1.4654   14.8288 N   0  0  0  0  0  0  0  0  0  0  0  0
    3.5908   -1.7654   13.8837 C   0  0  0  0  0  0  0  0  0  0  0  0
    3.6028   -0.9169   12.5519 C   0  0  0  0  0  0  0  0  0  0  0  0
    2.2158   -0.9108   11.8187 N   0  0  0  0  0  0  0  0  0  0  0  0
    2.9195    0.2363   11.0291 C   0  0  0  0  0  0  0  0  0  0  0  0
    0.7057   -0.4421   12.3351 C   0  0  0  0  0  0  0  0  0  0  0  0
    0.5375    0.0676   13.3901 O   0  0  0  0  0  0  0  0  0  0  0  0
   -1.0031   -0.6478   11.4164 C   0  0  0  0  0  0  0  0  0  0  0  0
   -2.0414   -1.0826    9.6044 C   0  0  0  0  0  0  0  0  0  0  0  0
   -3.5530   -0.5605    9.7260 C   0  0  0  0  0  0  0  0  0  0  0  0
   -3.9903   -0.4401   11.4229 N   0  0  0  0  0  0  0  0  0  0  0  0
   -2.3749   -0.0085   12.3009 N   0  0  0  0  0  0  0  0  0  0  0  0
    4.5387    0.1585   19.2320 H   0  0  0  0  0  0  0  0  0  0  0  0
    5.4218    1.6897   19.2368 H   0  0  0  0  0  0  0  0  0  0  0  0
    4.2636    1.3531   17.9414 H   0  0  0  0  0  0  0  0  0  0  0  0
    7.6464    1.5888   18.2931 H   0  0  0  0  0  0  0  0  0  0  0  0
   10.1389    1.0348   17.1941 H   0  0  0  0  0  0  0  0  0  0  0  0
   11.3180   -0.6475   15.7928 H   0  0  0  0  0  0  0  0  0  0  0  0
   10.0545   -2.4904   14.7602 H   0  0  0  0  0  0  0  0  0  0  0  0
    7.5961   -2.6269   14.9856 H   0  0  0  0  0  0  0  0  0  0  0  0
    5.6177   -1.2441   14.4633 H   0  0  0  0  0  0  0  0  0  0  0  0
    3.6585   -2.8307   13.6402 H   0  0  0  0  0  0  0  0  0  0  0  0
    2.6514   -1.6048   14.4230 H   0  0  0  0  0  0  0  0  0  0  0  0
    3.8712    0.0862   12.9209 H   0  0  0  0  0  0  0  0  0  0  0  0
    4.3761   -1.3749   11.9174 H   0  0  0  0  0  0  0  0  0  0  0  0
    2.5132    0.2461   10.0072 H   0  0  0  0  0  0  0  0  0  0  0  0
    2.7707    1.2077   11.5186 H   0  0  0  0  0  0  0  0  0  0  0  0
    3.9820    0.1016   10.7597 H   0  0  0  0  0  0  0  0  0  0  0  0
   -1.5819   -1.3363    8.6649 H   0  0  0  0  0  0  0  0  0  0  0  0
   -4.4140   -0.5182    9.0750 H   0  0  0  0  0  0  0  0  0  0  0  0
   -4.8342   -0.1917   11.9242 H   0  0  0  0  0  0  0  0  0  0  0  0
  1  2  1  0
  2  3  1  0
  3  4  1  0
  4  5  2  0
  5  6  1  0
  6  7  2  0
  7  8  1  0
  8  9  2  0
  9 10  1  0
 10 11  1  0
 11 12  2  0
 11 13  1  0
 13 14  1  0
 14 15  1  0
 15 16  1  0
 16 17  1  0
 16 18  1  0
 18 19  2  0
 18 20  1  0
 20 21  1  0
 21 22  2  0
 22 23  1  0
 23 24  1  0
 10  2  2  0
 24 20  2  0
  9  4  1  0
  1 25  1  0
  1 26  1  0
  1 27  1  0
  3 28  1  0
  5 29  1  0
  6 30  1  0
  7 31  1  0
  8 32  1  0
 13 33  1  0
 14 34  1  0
 14 35  1  0
 15 36  1  0
 15 37  1  0
 17 38  1  0
 17 39  1  0
 17 40  1  0
 21 41  1  0
 22 42  1  0
 23 43  1  0
M  END
>  <Energy>  (90) 
577.0302641174095

>  <compound_id>  (90) 
30263

>  <target_id>  (90) 
1

>  <reference_id>  (90) 
127

>  <inspiration_ids>  (90) 
[93, 127]

>  <energy_score>  (90) 
475.5568424068772

>  <distance_score>  (90) 
9.406655612296142

>  <path>  (90) 
/opt/xchem-fragalysis-2/maxwin/BulkDock/SCRATCH/511023/C30263-P127/C30263-P127.minimised.mol

>  <scratch_subdir>  (90) 
/opt/xchem-fragalysis-2/maxwin/BulkDock/SCRATCH/511023/C30263-P127

>  <fragmenstein_runtime>  (90) 
6.865004062652588

>  <fragmenstein_outcome>  (90) 
too moved

>  <fragmenstein_mode>  (90) 
expansion

>  <fragmenstein_error>  (90) 


$$$$
C30264-P93
     RDKit          3D

 44 46  0  0  0  0  0  0  0  0999 V2000
    2.6182    3.1176   12.8405 C   0  0  0  0  0  0  0  0  0  0  0  0
    2.5737    1.5588   12.9595 C   0  0  0  0  0  0  0  0  0  0  0  0
    4.4284    1.3124   12.6711 N   0  0  0  0  0  0  0  0  0  0  0  0
    5.6583   -0.3111   12.4958 C   0  0  0  0  0  0  0  0  0  0  0  0
    7.3383   -0.8686   12.9958 C   0  0  0  0  0  0  0  0  0  0  0  0
    7.2551   -1.9550   13.8925 C   0  0  0  0  0  0  0  0  0  0  0  0
    8.2669   -2.2330   14.8387 C   0  0  0  0  0  0  0  0  0  0  0  0
    9.3950   -1.4146   15.0960 C   0  0  0  0  0  0  0  0  0  0  0  0
   10.6922   -1.5795   15.6718 C   0  0  0  0  0  0  0  0  0  0  0  0
   11.3987   -0.4125   15.4923 C   0  0  0  0  0  0  0  0  0  0  0  0
   10.6269    0.4058   14.7096 N   0  0  0  0  0  0  0  0  0  0  0  0
    9.4447   -0.2260   14.3953 C   0  0  0  0  0  0  0  0  0  0  0  0
    8.5195   -0.0320   13.3108 C   0  0  0  0  0  0  0  0  0  0  0  0
    0.7306    1.2294   13.7973 C   0  0  0  0  0  0  0  0  0  0  0  0
    0.6454    2.0948   15.0512 C   0  0  0  0  0  0  0  0  0  0  0  0
   -1.1451    1.2254   12.9995 N   0  0  0  0  0  0  0  0  0  0  0  0
   -2.2730   -0.2152   12.3878 C   0  0  0  0  0  0  0  0  0  0  0  0
   -1.8046   -1.2983   12.3853 O   0  0  0  0  0  0  0  0  0  0  0  0
   -4.1393   -0.2707   11.5635 C   0  0  0  0  0  0  0  0  0  0  0  0
   -4.4641   -0.6540    9.8821 C   0  0  0  0  0  0  0  0  0  0  0  0
   -5.7811   -0.9881    9.7223 C   0  0  0  0  0  0  0  0  0  0  0  0
   -6.3037   -0.8430   10.9580 N   0  0  0  0  0  0  0  0  0  0  0  0
   -5.4612   -0.5561   11.9810 N   0  0  0  0  0  0  0  0  0  0  0  0
    2.9428    3.6006   13.7642 H   0  0  0  0  0  0  0  0  0  0  0  0
    3.2738    3.4482   12.0278 H   0  0  0  0  0  0  0  0  0  0  0  0
    1.6280    3.5321   12.6294 H   0  0  0  0  0  0  0  0  0  0  0  0
    2.5193    1.0799   12.0189 H   0  0  0  0  0  0  0  0  0  0  0  0
    4.5159    1.6124   11.6900 H   0  0  0  0  0  0  0  0  0  0  0  0
    5.5434   -0.6182   13.4838 H   0  0  0  0  0  0  0  0  0  0  0  0
    5.3228   -0.9648   11.6808 H   0  0  0  0  0  0  0  0  0  0  0  0
    6.3863   -2.5976   13.8991 H   0  0  0  0  0  0  0  0  0  0  0  0
    8.2223   -3.2312   15.2166 H   0  0  0  0  0  0  0  0  0  0  0  0
   11.1026   -2.4785   16.1121 H   0  0  0  0  0  0  0  0  0  0  0  0
   12.4098   -0.1356   15.7600 H   0  0  0  0  0  0  0  0  0  0  0  0
   10.9471    1.2626   14.2820 H   0  0  0  0  0  0  0  0  0  0  0  0
    8.9123    0.6369   12.5716 H   0  0  0  0  0  0  0  0  0  0  0  0
    0.8860    0.1481   13.8641 H   0  0  0  0  0  0  0  0  0  0  0  0
    1.5718    2.0369   15.6284 H   0  0  0  0  0  0  0  0  0  0  0  0
    0.4794    3.1397   14.7724 H   0  0  0  0  0  0  0  0  0  0  0  0
   -0.1820    1.8112   15.7048 H   0  0  0  0  0  0  0  0  0  0  0  0
   -1.6970    2.0787   13.0297 H   0  0  0  0  0  0  0  0  0  0  0  0
   -3.6828   -0.5968    9.1298 H   0  0  0  0  0  0  0  0  0  0  0  0
   -6.3729   -1.2780    8.8670 H   0  0  0  0  0  0  0  0  0  0  0  0
   -7.2629   -1.0483   11.2002 H   0  0  0  0  0  0  0  0  0  0  0  0
  1  2  1  0
  2  3  1  0
  3  4  1  0
  4  5  1  0
  5  6  2  0
  6  7  1  0
  7  8  2  0
  8  9  1  0
  9 10  2  0
 10 11  1  0
 11 12  1  0
 12 13  2  0
  2 14  1  0
 14 15  1  0
 14 16  1  0
 16 17  1  0
 17 18  2  0
 17 19  1  0
 19 20  1  0
 20 21  2  0
 21 22  1  0
 22 23  1  0
 13  5  1  0
 23 19  2  0
 12  8  1  0
  1 24  1  0
  1 25  1  0
  1 26  1  0
  2 27  1  0
  3 28  1  0
  4 29  1  0
  4 30  1  0
  6 31  1  0
  7 32  1  0
  9 33  1  0
 10 34  1  0
 11 35  1  0
 13 36  1  0
 14 37  1  0
 15 38  1  0
 15 39  1  0
 15 40  1  0
 16 41  1  0
 20 42  1  0
 21 43  1  0
 22 44  1  0
M  END
>  <Energy>  (91) 
773.7522719855242

>  <compound_id>  (91) 
30264

>  <target_id>  (91) 
1

>  <reference_id>  (91) 
93

>  <inspiration_ids>  (91) 
[93, 127]

>  <energy_score>  (91) 
687.9941235811867

>  <distance_score>  (91) 
8.034738945809375

>  <path>  (91) 
/opt/xchem-fragalysis-2/maxwin/BulkDock/SCRATCH/511023/C30264-P93/C30264-P93.minimised.mol

>  <scratch_subdir>  (91) 
/opt/xchem-fragalysis-2/maxwin/BulkDock/SCRATCH/511023/C30264-P93

>  <fragmenstein_runtime>  (91) 
6.7785139083862305

>  <fragmenstein_outcome>  (91) 
too moved

>  <fragmenstein_mode>  (91) 
expansion

>  <fragmenstein_error>  (91) 


$$$$
C30264-P127
     RDKit          3D

 44 46  0  0  0  0  0  0  0  0999 V2000
    2.0184    2.4974   16.2076 C   0  0  0  0  0  0  0  0  0  0  0  0
    2.2304    2.7435   14.7195 C   0  0  0  0  0  0  0  0  0  0  0  0
    3.2065    3.9208   14.4623 N   0  0  0  0  0  0  0  0  0  0  0  0
    3.9843    4.6186   15.5670 C   0  0  0  0  0  0  0  0  0  0  0  0
    5.4366    4.2570   16.0127 C   0  0  0  0  0  0  0  0  0  0  0  0
    5.6456    3.5271   17.1998 C   0  0  0  0  0  0  0  0  0  0  0  0
    6.9023    2.9877   17.5524 C   0  0  0  0  0  0  0  0  0  0  0  0
    8.0277    3.2500   16.7512 C   0  0  0  0  0  0  0  0  0  0  0  0
    9.3904    2.8264   16.7530 C   0  0  0  0  0  0  0  0  0  0  0  0
   10.0299    3.4551   15.7109 C   0  0  0  0  0  0  0  0  0  0  0  0
    9.1061    4.2510   15.0840 N   0  0  0  0  0  0  0  0  0  0  0  0
    7.8603    4.1076   15.6642 C   0  0  0  0  0  0  0  0  0  0  0  0
    6.5875    4.6152   15.2738 C   0  0  0  0  0  0  0  0  0  0  0  0
    0.7177    2.7808   13.9485 C   0  0  0  0  0  0  0  0  0  0  0  0
   -0.0950    3.9374   14.5382 C   0  0  0  0  0  0  0  0  0  0  0  0
   -0.2956    1.5593   13.6469 N   0  0  0  0  0  0  0  0  0  0  0  0
   -1.9390    1.5190   12.9817 C   0  0  0  0  0  0  0  0  0  0  0  0
   -2.4274    2.5495   12.7919 O   0  0  0  0  0  0  0  0  0  0  0  0
   -3.1854   -0.0439   12.6163 C   0  0  0  0  0  0  0  0  0  0  0  0
   -4.1929   -0.4365   10.9037 C   0  0  0  0  0  0  0  0  0  0  0  0
   -5.7026   -0.8282   10.7733 C   0  0  0  0  0  0  0  0  0  0  0  0
   -5.8154   -0.4633   12.0479 N   0  0  0  0  0  0  0  0  0  0  0  0
   -4.4967   -0.4581   12.0746 N   0  0  0  0  0  0  0  0  0  0  0  0
    2.9454    2.4296   16.7624 H   0  0  0  0  0  0  0  0  0  0  0  0
    1.4594    1.5693   16.3667 H   0  0  0  0  0  0  0  0  0  0  0  0
    1.4468    3.3068   16.6729 H   0  0  0  0  0  0  0  0  0  0  0  0
    2.7129    1.8991   14.2356 H   0  0  0  0  0  0  0  0  0  0  0  0
    2.6986    4.6298   13.9395 H   0  0  0  0  0  0  0  0  0  0  0  0
    3.3511    4.7215   16.4560 H   0  0  0  0  0  0  0  0  0  0  0  0
    4.0797    5.6555   15.2124 H   0  0  0  0  0  0  0  0  0  0  0  0
    4.7917    3.2952   17.8317 H   0  0  0  0  0  0  0  0  0  0  0  0
    6.9759    2.3531   18.4272 H   0  0  0  0  0  0  0  0  0  0  0  0
    9.8600    2.1443   17.4457 H   0  0  0  0  0  0  0  0  0  0  0  0
   11.0582    3.4232   15.3772 H   0  0  0  0  0  0  0  0  0  0  0  0
    9.2916    4.8471   14.2899 H   0  0  0  0  0  0  0  0  0  0  0  0
    6.4842    5.2053   14.3675 H   0  0  0  0  0  0  0  0  0  0  0  0
    0.9746    3.0876   12.9267 H   0  0  0  0  0  0  0  0  0  0  0  0
    0.5089    4.8445   14.6372 H   0  0  0  0  0  0  0  0  0  0  0  0
   -0.9509    4.1922   13.9086 H   0  0  0  0  0  0  0  0  0  0  0  0
   -0.4684    3.6712   15.5284 H   0  0  0  0  0  0  0  0  0  0  0  0
    0.0446    0.6225   13.6801 H   0  0  0  0  0  0  0  0  0  0  0  0
   -3.6748   -0.3175    9.9173 H   0  0  0  0  0  0  0  0  0  0  0  0
   -6.3917   -0.9830    9.9559 H   0  0  0  0  0  0  0  0  0  0  0  0
   -6.4389   -0.1470   12.7928 H   0  0  0  0  0  0  0  0  0  0  0  0
  1  2  1  0
  2  3  1  0
  3  4  1  0
  4  5  1  0
  5  6  2  0
  6  7  1  0
  7  8  2  0
  8  9  1  0
  9 10  2  0
 10 11  1  0
 11 12  1  0
 12 13  2  0
  2 14  1  0
 14 15  1  0
 14 16  1  0
 16 17  1  0
 17 18  2  0
 17 19  1  0
 19 20  1  0
 20 21  2  0
 21 22  1  0
 22 23  1  0
 13  5  1  0
 23 19  2  0
 12  8  1  0
  1 24  1  0
  1 25  1  0
  1 26  1  0
  2 27  1  0
  3 28  1  0
  4 29  1  0
  4 30  1  0
  6 31  1  0
  7 32  1  0
  9 33  1  0
 10 34  1  0
 11 35  1  0
 13 36  1  0
 14 37  1  0
 15 38  1  0
 15 39  1  0
 15 40  1  0
 16 41  1  0
 20 42  1  0
 21 43  1  0
 22 44  1  0
M  END
>  <Energy>  (92) 
673.97586232489152

>  <compound_id>  (92) 
30264

>  <target_id>  (92) 
1

>  <reference_id>  (92) 
127

>  <inspiration_ids>  (92) 
[93, 127]

>  <energy_score>  (92) 
588.2177139205456

>  <distance_score>  (92) 
9.818727060012593

>  <path>  (92) 
/opt/xchem-fragalysis-2/maxwin/BulkDock/SCRATCH/511023/C30264-P127/C30264-P127.minimised.mol

>  <scratch_subdir>  (92) 
/opt/xchem-fragalysis-2/maxwin/BulkDock/SCRATCH/511023/C30264-P127

>  <fragmenstein_runtime>  (92) 
8.438721179962158

>  <fragmenstein_outcome>  (92) 
too moved

>  <fragmenstein_mode>  (92) 
expansion

>  <fragmenstein_error>  (92) 


$$$$
C30265-P93
     RDKit          3D

 41 43  0  0  0  0  0  0  0  0999 V2000
    0.6752   -1.3389    8.0748 N   0  0  0  0  0  0  0  0  0  0  0  0
    0.2096   -0.3277    9.0464 C   0  0  0  0  0  0  0  0  0  0  0  0
   -1.1938    0.1605    8.4951 C   0  0  0  0  0  0  0  0  0  0  0  0
   -2.3742   -0.8153    8.2364 C   0  0  0  0  0  0  0  0  0  0  0  0
   -3.7557   -0.6460    8.5689 C   0  0  0  0  0  0  0  0  0  0  0  0
   -4.4503   -1.5533    7.8150 C   0  0  0  0  0  0  0  0  0  0  0  0
   -3.4953   -2.3180    7.2269 N   0  0  0  0  0  0  0  0  0  0  0  0
   -2.2434   -1.8567    7.3967 N   0  0  0  0  0  0  0  0  0  0  0  0
    0.0264   -0.8021   10.6377 C   0  0  0  0  0  0  0  0  0  0  0  0
   -1.1584   -1.0888   10.8606 O   0  0  0  0  0  0  0  0  0  0  0  0
    1.3809   -0.9380   11.6299 N   0  0  0  0  0  0  0  0  0  0  0  0
    1.5782   -1.7118   13.3907 C   0  0  0  0  0  0  0  0  0  0  0  0
    3.2506   -3.0592   13.4758 C   0  0  0  0  0  0  0  0  0  0  0  0
    5.1868   -2.8958   14.2792 C   0  0  0  0  0  0  0  0  0  0  0  0
    5.8243   -2.5926   12.8201 C   0  0  0  0  0  0  0  0  0  0  0  0
    6.7473   -1.6338   12.1916 C   0  0  0  0  0  0  0  0  0  0  0  0
    7.5223   -0.8600   12.8978 C   0  0  0  0  0  0  0  0  0  0  0  0
    7.6231   -1.3577   14.1469 C   0  0  0  0  0  0  0  0  0  0  0  0
    8.5270   -0.8403   15.1158 C   0  0  0  0  0  0  0  0  0  0  0  0
    9.0230   -2.0662   15.2531 C   0  0  0  0  0  0  0  0  0  0  0  0
    7.8653   -2.8473   15.1909 N   0  0  0  0  0  0  0  0  0  0  0  0
    6.6636   -2.2757   14.6322 C   0  0  0  0  0  0  0  0  0  0  0  0
   -0.1254   -1.6419    7.4978 H   0  0  0  0  0  0  0  0  0  0  0  0
    0.9508   -2.1886    8.5518 H   0  0  0  0  0  0  0  0  0  0  0  0
    0.9074    0.5097    8.9860 H   0  0  0  0  0  0  0  0  0  0  0  0
   -1.5387    0.9888    9.1138 H   0  0  0  0  0  0  0  0  0  0  0  0
   -0.9506    0.6087    7.5214 H   0  0  0  0  0  0  0  0  0  0  0  0
   -4.2214    0.1323    9.1333 H   0  0  0  0  0  0  0  0  0  0  0  0
   -5.5056   -1.7370    7.6741 H   0  0  0  0  0  0  0  0  0  0  0  0
   -3.6245   -3.1362    6.6425 H   0  0  0  0  0  0  0  0  0  0  0  0
    2.1678   -0.5456   11.1770 H   0  0  0  0  0  0  0  0  0  0  0  0
    1.4140   -0.7385   13.8181 H   0  0  0  0  0  0  0  0  0  0  0  0
    0.6624   -2.1523   13.8217 H   0  0  0  0  0  0  0  0  0  0  0  0
    3.3857   -3.4098   12.4307 H   0  0  0  0  0  0  0  0  0  0  0  0
    2.8319   -3.9783   13.9476 H   0  0  0  0  0  0  0  0  0  0  0  0
    5.2439   -3.2369   12.1308 H   0  0  0  0  0  0  0  0  0  0  0  0
    6.9273   -1.4397   11.1528 H   0  0  0  0  0  0  0  0  0  0  0  0
    8.2272   -0.1478   12.5173 H   0  0  0  0  0  0  0  0  0  0  0  0
    9.1437    0.0474   15.0489 H   0  0  0  0  0  0  0  0  0  0  0  0
   10.0290   -2.4527   15.3890 H   0  0  0  0  0  0  0  0  0  0  0  0
    7.9612   -3.7777   15.5212 H   0  0  0  0  0  0  0  0  0  0  0  0
  1  2  1  0
  2  3  1  0
  3  4  1  0
  4  5  1  0
  5  6  2  0
  6  7  1  0
  7  8  1  0
  2  9  1  0
  9 10  2  0
  9 11  1  0
 11 12  1  0
 12 13  1  0
 13 14  1  0
 14 15  2  0
 15 16  1  0
 16 17  2  0
 17 18  1  0
 18 19  1  0
 19 20  2  0
 20 21  1  0
 21 22  1  0
  8  4  2  0
 22 14  1  0
 22 18  2  0
  1 23  1  0
  1 24  1  0
  2 25  1  0
  3 26  1  0
  3 27  1  0
  5 28  1  0
  6 29  1  0
  7 30  1  0
 11 31  1  0
 12 32  1  0
 12 33  1  0
 13 34  1  0
 13 35  1  0
 15 36  1  0
 16 37  1  0
 17 38  1  0
 19 39  1  0
 20 40  1  0
 21 41  1  0
M  END
>  <Energy>  (93) 
589.80345169267821

>  <compound_id>  (93) 
30265

>  <target_id>  (93) 
1

>  <reference_id>  (93) 
93

>  <inspiration_ids>  (93) 
[93, 127]

>  <energy_score>  (93) 
497.4902403818194

>  <distance_score>  (93) 
9.65646379194531

>  <path>  (93) 
/opt/xchem-fragalysis-2/maxwin/BulkDock/SCRATCH/511023/C30265-P93/C30265-P93.minimised.mol

>  <scratch_subdir>  (93) 
/opt/xchem-fragalysis-2/maxwin/BulkDock/SCRATCH/511023/C30265-P93

>  <fragmenstein_runtime>  (93) 
10.825342655181885

>  <fragmenstein_outcome>  (93) 
too moved

>  <fragmenstein_mode>  (93) 
expansion

>  <fragmenstein_error>  (93) 


$$$$
C30265-P127
     RDKit          3D

 41 43  0  0  0  0  0  0  0  0999 V2000
   -0.6725    0.8674    6.2732 N   0  0  0  0  0  0  0  0  0  0  0  0
   -1.0036    1.3266    7.6296 C   0  0  0  0  0  0  0  0  0  0  0  0
   -2.4178    2.0411    7.6807 C   0  0  0  0  0  0  0  0  0  0  0  0
   -3.6850    1.1979    7.5609 C   0  0  0  0  0  0  0  0  0  0  0  0
   -3.9603   -0.1207    8.0138 C   0  0  0  0  0  0  0  0  0  0  0  0
   -5.3008   -0.3287    7.7734 C   0  0  0  0  0  0  0  0  0  0  0  0
   -5.7571    0.8157    7.1932 N   0  0  0  0  0  0  0  0  0  0  0  0
   -4.7995    1.7481    7.0424 N   0  0  0  0  0  0  0  0  0  0  0  0
    0.1766    2.2899    8.2241 C   0  0  0  0  0  0  0  0  0  0  0  0
   -0.0355    3.4745    8.2219 O   0  0  0  0  0  0  0  0  0  0  0  0
    1.3107    1.5162    8.7772 N   0  0  0  0  0  0  0  0  0  0  0  0
    2.5310    1.9671    9.6213 C   0  0  0  0  0  0  0  0  0  0  0  0
    3.0531    1.1552   11.2423 C   0  0  0  0  0  0  0  0  0  0  0  0
    4.5134    0.4393   11.2802 C   0  0  0  0  0  0  0  0  0  0  0  0
    5.0924    1.4190   10.2566 C   0  0  0  0  0  0  0  0  0  0  0  0
    6.2696    0.9833    9.7909 C   0  0  0  0  0  0  0  0  0  0  0  0
    6.9706   -0.5176   10.5662 C   0  0  0  0  0  0  0  0  0  0  0  0
    6.8514   -1.1982   11.8845 C   0  0  0  0  0  0  0  0  0  0  0  0
    7.3937   -1.3045   13.1899 C   0  0  0  0  0  0  0  0  0  0  0  0
    6.6608   -2.2443   13.8106 C   0  0  0  0  0  0  0  0  0  0  0  0
    5.8661   -2.3634   12.6974 N   0  0  0  0  0  0  0  0  0  0  0  0
    5.5344   -0.8501   12.1950 C   0  0  0  0  0  0  0  0  0  0  0  0
   -1.4934    0.4127    5.8698 H   0  0  0  0  0  0  0  0  0  0  0  0
   -0.5250    1.6962    5.6913 H   0  0  0  0  0  0  0  0  0  0  0  0
   -1.0449    0.4474    8.2821 H   0  0  0  0  0  0  0  0  0  0  0  0
   -2.4380    2.8087    6.8940 H   0  0  0  0  0  0  0  0  0  0  0  0
   -2.4908    2.5929    8.6257 H   0  0  0  0  0  0  0  0  0  0  0  0
   -3.2761   -0.8166    8.4787 H   0  0  0  0  0  0  0  0  0  0  0  0
   -5.9556   -1.1681    7.9579 H   0  0  0  0  0  0  0  0  0  0  0  0
   -6.6976    1.0350    6.8796 H   0  0  0  0  0  0  0  0  0  0  0  0
    1.2015    0.5386    8.5237 H   0  0  0  0  0  0  0  0  0  0  0  0
    3.3143    2.0303    8.8654 H   0  0  0  0  0  0  0  0  0  0  0  0
    2.3014    2.9970    9.9256 H   0  0  0  0  0  0  0  0  0  0  0  0
    3.1213    2.0020   11.9409 H   0  0  0  0  0  0  0  0  0  0  0  0
    2.3918    0.4163   11.6920 H   0  0  0  0  0  0  0  0  0  0  0  0
    4.7298    2.3940    9.9919 H   0  0  0  0  0  0  0  0  0  0  0  0
    6.6973    1.4220    8.8865 H   0  0  0  0  0  0  0  0  0  0  0  0
    7.8180   -0.3144   11.1805 H   0  0  0  0  0  0  0  0  0  0  0  0
    8.2640   -0.7968   13.6157 H   0  0  0  0  0  0  0  0  0  0  0  0
    6.6672   -2.8290   14.7161 H   0  0  0  0  0  0  0  0  0  0  0  0
    5.1703   -3.0780   12.4849 H   0  0  0  0  0  0  0  0  0  0  0  0
  1  2  1  0
  2  3  1  0
  3  4  1  0
  4  5  1  0
  5  6  2  0
  6  7  1  0
  7  8  1  0
  2  9  1  0
  9 10  2  0
  9 11  1  0
 11 12  1  0
 12 13  1  0
 13 14  1  0
 14 15  2  0
 15 16  1  0
 16 17  2  0
 17 18  1  0
 18 19  1  0
 19 20  2  0
 20 21  1  0
 21 22  1  0
  8  4  2  0
 22 14  1  0
 22 18  2  0
  1 23  1  0
  1 24  1  0
  2 25  1  0
  3 26  1  0
  3 27  1  0
  5 28  1  0
  6 29  1  0
  7 30  1  0
 11 31  1  0
 12 32  1  0
 12 33  1  0
 13 34  1  0
 13 35  1  0
 15 36  1  0
 16 37  1  0
 17 38  1  0
 19 39  1  0
 20 40  1  0
 21 41  1  0
M  END
>  <Energy>  (94) 
474.87922532656569

>  <compound_id>  (94) 
30265

>  <target_id>  (94) 
1

>  <reference_id>  (94) 
127

>  <inspiration_ids>  (94) 
[93, 127]

>  <energy_score>  (94) 
382.56601401571163

>  <distance_score>  (94) 
9.899830620129718

>  <path>  (94) 
/opt/xchem-fragalysis-2/maxwin/BulkDock/SCRATCH/511023/C30265-P127/C30265-P127.minimised.mol

>  <scratch_subdir>  (94) 
/opt/xchem-fragalysis-2/maxwin/BulkDock/SCRATCH/511023/C30265-P127

>  <fragmenstein_runtime>  (94) 
10.33136796951294

>  <fragmenstein_outcome>  (94) 
too moved

>  <fragmenstein_mode>  (94) 
expansion

>  <fragmenstein_error>  (94) 


$$$$
C46199-P93
     RDKit          3D

 48 51  0  0  0  0  0  0  0  0999 V2000
    6.9363   -1.5325   11.6024 C   0  0  0  0  0  0  0  0  0  0  0  0
    5.5201   -1.0409   11.8849 N   0  0  0  0  0  0  0  0  0  0  0  0
    6.2423   -1.2111   13.4162 C   0  0  0  0  0  0  0  0  0  0  0  0
    7.9505   -1.1129   14.2692 C   0  0  0  0  0  0  0  0  0  0  0  0
    7.7070   -1.2257   15.5869 N   0  0  0  0  0  0  0  0  0  0  0  0
    8.7054   -0.5504   16.1766 N   0  0  0  0  0  0  0  0  0  0  0  0
    9.8637   -0.6270   15.4906 C   0  0  0  0  0  0  0  0  0  0  0  0
    9.2896   -0.2972   14.2789 C   0  0  0  0  0  0  0  0  0  0  0  0
   10.0985    0.7278   13.5359 C   0  0  0  0  0  0  0  0  0  0  0  0
   11.6004    0.5105   13.2484 C   0  0  0  0  0  0  0  0  0  0  0  0
   12.2550   -0.8137   13.6300 C   0  0  0  0  0  0  0  0  0  0  0  0
   12.3159   -1.1013   15.1167 C   0  0  0  0  0  0  0  0  0  0  0  0
   11.2607   -0.4011   15.9575 C   0  0  0  0  0  0  0  0  0  0  0  0
    3.7957   -1.8998   11.5032 C   0  0  0  0  0  0  0  0  0  0  0  0
    3.6508   -3.0144   11.0655 O   0  0  0  0  0  0  0  0  0  0  0  0
    2.2910   -0.7416   11.6648 N   0  0  0  0  0  0  0  0  0  0  0  0
    0.5650   -0.9385   11.1291 C   0  0  0  0  0  0  0  0  0  0  0  0
   -1.0164   -1.2663   10.9559 C   0  0  0  0  0  0  0  0  0  0  0  0
   -2.1211   -1.5754    9.3026 C   0  0  0  0  0  0  0  0  0  0  0  0
   -2.1897   -1.2687    8.0403 C   0  0  0  0  0  0  0  0  0  0  0  0
   -3.4553   -1.0148    7.5415 N   0  0  0  0  0  0  0  0  0  0  0  0
   -4.0006   -0.0301    8.3194 C   0  0  0  0  0  0  0  0  0  0  0  0
   -2.8483    0.5690    8.8650 C   0  0  0  0  0  0  0  0  0  0  0  0
   -1.5572   -0.4803    9.0008 C   0  0  0  0  0  0  0  0  0  0  0  0
    0.1216   -0.9835    9.9664 C   0  0  0  0  0  0  0  0  0  0  0  0
    7.7880   -0.9504   11.9181 H   0  0  0  0  0  0  0  0  0  0  0  0
    7.1208   -2.5532   11.4472 H   0  0  0  0  0  0  0  0  0  0  0  0
    7.0315   -1.0835   10.6082 H   0  0  0  0  0  0  0  0  0  0  0  0
    6.3501   -2.3005   13.5007 H   0  0  0  0  0  0  0  0  0  0  0  0
    6.7833   -0.3935   12.9647 H   0  0  0  0  0  0  0  0  0  0  0  0
    8.5183   -0.0966   17.0645 H   0  0  0  0  0  0  0  0  0  0  0  0
    9.6108    1.1123   12.6749 H   0  0  0  0  0  0  0  0  0  0  0  0
   10.0829    1.6208   14.1857 H   0  0  0  0  0  0  0  0  0  0  0  0
   12.1638    1.3206   13.7332 H   0  0  0  0  0  0  0  0  0  0  0  0
   11.7596    0.6934   12.1798 H   0  0  0  0  0  0  0  0  0  0  0  0
   11.7619   -1.6566   13.1465 H   0  0  0  0  0  0  0  0  0  0  0  0
   13.2791   -0.8248   13.2346 H   0  0  0  0  0  0  0  0  0  0  0  0
   13.3022   -0.8012   15.4941 H   0  0  0  0  0  0  0  0  0  0  0  0
   12.2566   -2.1873   15.2688 H   0  0  0  0  0  0  0  0  0  0  0  0
   11.4367   -0.7974   16.9407 H   0  0  0  0  0  0  0  0  0  0  0  0
   11.4665    0.6744   16.0136 H   0  0  0  0  0  0  0  0  0  0  0  0
    2.6149    0.1787   11.9688 H   0  0  0  0  0  0  0  0  0  0  0  0
   -1.5044   -1.1394   11.9929 H   0  0  0  0  0  0  0  0  0  0  0  0
   -2.9901   -2.2972    9.2984 H   0  0  0  0  0  0  0  0  0  0  0  0
   -3.9819   -1.6429    6.9545 H   0  0  0  0  0  0  0  0  0  0  0  0
   -5.0141    0.3104    8.1629 H   0  0  0  0  0  0  0  0  0  0  0  0
   -2.8584    1.6250    9.0356 H   0  0  0  0  0  0  0  0  0  0  0  0
    0.8730   -1.7139    9.4800 H   0  0  0  0  0  0  0  0  0  0  0  0
  1  2  1  0
  2  3  1  0
  3  4  1  0
  4  5  2  0
  5  6  1  0
  6  7  1  0
  7  8  2  0
  8  9  1  0
  9 10  1  0
 10 11  1  0
 11 12  1  0
 12 13  1  0
  2 14  1  0
 14 15  2  0
 14 16  1  0
 16 17  1  0
 17 18  2  0
 18 19  1  0
 19 20  2  0
 20 21  1  0
 21 22  1  0
 22 23  2  0
 23 24  1  0
 24 25  2  0
  8  4  1  0
 25 17  1  0
 13  7  1  0
 24 20  1  0
  1 26  1  0
  1 27  1  0
  1 28  1  0
  3 29  1  0
  3 30  1  0
  6 31  1  0
  9 32  1  0
  9 33  1  0
 10 34  1  0
 10 35  1  0
 11 36  1  0
 11 37  1  0
 12 38  1  0
 12 39  1  0
 13 40  1  0
 13 41  1  0
 16 42  1  0
 18 43  1  0
 19 44  1  0
 21 45  1  0
 22 46  1  0
 23 47  1  0
 25 48  1  0
M  END
>  <Energy>  (95) 
1213.2687261768297

>  <compound_id>  (95) 
46199

>  <target_id>  (95) 
1

>  <reference_id>  (95) 
93

>  <inspiration_ids>  (95) 
[93, 127]

>  <energy_score>  (95) 
1188.8371967530352

>  <distance_score>  (95) 
6.668788788355901

>  <path>  (95) 
/opt/xchem-fragalysis-2/maxwin/BulkDock/SCRATCH/511023/C46199-P93/C46199-P93.minimised.mol

>  <scratch_subdir>  (95) 
/opt/xchem-fragalysis-2/maxwin/BulkDock/SCRATCH/511023/C46199-P93

>  <fragmenstein_runtime>  (95) 
13.225478410720825

>  <fragmenstein_outcome>  (95) 
too moved

>  <fragmenstein_mode>  (95) 
expansion

>  <fragmenstein_error>  (95) 


$$$$
C46199-P127
     RDKit          3D

 48 51  0  0  0  0  0  0  0  0999 V2000
    5.5141   -1.2994   12.4470 C   0  0  0  0  0  0  0  0  0  0  0  0
    3.9030   -1.8486   11.4199 N   0  0  0  0  0  0  0  0  0  0  0  0
    4.4929   -3.2354   12.5637 C   0  0  0  0  0  0  0  0  0  0  0  0
    5.8307   -2.8726   14.1325 C   0  0  0  0  0  0  0  0  0  0  0  0
    6.6944   -3.5647   14.8464 N   0  0  0  0  0  0  0  0  0  0  0  0
    8.0132   -3.1090   14.4606 N   0  0  0  0  0  0  0  0  0  0  0  0
    8.0190   -1.7405   14.1630 C   0  0  0  0  0  0  0  0  0  0  0  0
    6.8922   -1.9185   14.8737 C   0  0  0  0  0  0  0  0  0  0  0  0
    7.7244   -1.5540   16.2598 C   0  0  0  0  0  0  0  0  0  0  0  0
    9.3828   -1.6521   16.3578 C   0  0  0  0  0  0  0  0  0  0  0  0
   10.0948   -0.3604   16.5145 C   0  0  0  0  0  0  0  0  0  0  0  0
    9.6315    0.3645   15.3309 C   0  0  0  0  0  0  0  0  0  0  0  0
    9.3655   -0.6304   14.1750 C   0  0  0  0  0  0  0  0  0  0  0  0
    2.0450   -1.0270   11.2275 C   0  0  0  0  0  0  0  0  0  0  0  0
    1.8932   -0.0947   11.9777 O   0  0  0  0  0  0  0  0  0  0  0  0
    0.7855   -1.6428    9.7627 N   0  0  0  0  0  0  0  0  0  0  0  0
   -1.0983   -1.1074    9.1125 C   0  0  0  0  0  0  0  0  0  0  0  0
   -2.6158   -0.8735    9.2452 C   0  0  0  0  0  0  0  0  0  0  0  0
   -4.0501   -0.8757    8.7214 C   0  0  0  0  0  0  0  0  0  0  0  0
   -4.2006   -1.1138    7.4222 C   0  0  0  0  0  0  0  0  0  0  0  0
   -5.2741   -1.1081    6.5884 N   0  0  0  0  0  0  0  0  0  0  0  0
   -4.8089   -0.9531    5.3178 C   0  0  0  0  0  0  0  0  0  0  0  0
   -3.4334   -0.9216    5.4068 C   0  0  0  0  0  0  0  0  0  0  0  0
   -3.0192   -1.1697    6.7531 C   0  0  0  0  0  0  0  0  0  0  0  0
   -1.7113   -1.2813    7.5874 C   0  0  0  0  0  0  0  0  0  0  0  0
    6.2578   -0.9384   11.7121 H   0  0  0  0  0  0  0  0  0  0  0  0
    5.6729   -0.4775   13.0935 H   0  0  0  0  0  0  0  0  0  0  0  0
    6.2954   -2.0845   12.4589 H   0  0  0  0  0  0  0  0  0  0  0  0
    3.5339   -3.5522   13.0214 H   0  0  0  0  0  0  0  0  0  0  0  0
    4.8693   -3.9786   11.8964 H   0  0  0  0  0  0  0  0  0  0  0  0
    8.7917   -3.6362   14.8389 H   0  0  0  0  0  0  0  0  0  0  0  0
    7.2623   -0.7680   16.8596 H   0  0  0  0  0  0  0  0  0  0  0  0
    7.5718   -2.5442   16.5380 H   0  0  0  0  0  0  0  0  0  0  0  0
    9.8034   -2.2818   17.0850 H   0  0  0  0  0  0  0  0  0  0  0  0
    9.8555   -2.2436   15.5683 H   0  0  0  0  0  0  0  0  0  0  0  0
    9.8009    0.1766   17.4164 H   0  0  0  0  0  0  0  0  0  0  0  0
   11.1808   -0.4993   16.5137 H   0  0  0  0  0  0  0  0  0  0  0  0
   10.3774    1.1097   15.0291 H   0  0  0  0  0  0  0  0  0  0  0  0
    8.7565    0.9038   15.7038 H   0  0  0  0  0  0  0  0  0  0  0  0
    9.2767   -0.0437   13.2606 H   0  0  0  0  0  0  0  0  0  0  0  0
   10.3089   -1.1912   14.0388 H   0  0  0  0  0  0  0  0  0  0  0  0
    1.1332   -2.2926    9.2777 H   0  0  0  0  0  0  0  0  0  0  0  0
   -2.9207   -0.1045    9.9013 H   0  0  0  0  0  0  0  0  0  0  0  0
   -4.8597   -0.4620    9.3005 H   0  0  0  0  0  0  0  0  0  0  0  0
   -6.2452   -1.0771    6.8722 H   0  0  0  0  0  0  0  0  0  0  0  0
   -5.4821   -0.8132    4.4828 H   0  0  0  0  0  0  0  0  0  0  0  0
   -2.8090   -0.6606    4.5720 H   0  0  0  0  0  0  0  0  0  0  0  0
   -0.9902   -1.3517    6.7800 H   0  0  0  0  0  0  0  0  0  0  0  0
  1  2  1  0
  2  3  1  0
  3  4  1  0
  4  5  2  0
  5  6  1  0
  6  7  1  0
  7  8  2  0
  8  9  1  0
  9 10  1  0
 10 11  1  0
 11 12  1  0
 12 13  1  0
  2 14  1  0
 14 15  2  0
 14 16  1  0
 16 17  1  0
 17 18  2  0
 18 19  1  0
 19 20  2  0
 20 21  1  0
 21 22  1  0
 22 23  2  0
 23 24  1  0
 24 25  2  0
  8  4  1  0
 25 17  1  0
 13  7  1  0
 24 20  1  0
  1 26  1  0
  1 27  1  0
  1 28  1  0
  3 29  1  0
  3 30  1  0
  6 31  1  0
  9 32  1  0
  9 33  1  0
 10 34  1  0
 10 35  1  0
 11 36  1  0
 11 37  1  0
 12 38  1  0
 12 39  1  0
 13 40  1  0
 13 41  1  0
 16 42  1  0
 18 43  1  0
 19 44  1  0
 21 45  1  0
 22 46  1  0
 23 47  1  0
 25 48  1  0
M  END
>  <Energy>  (96) 
1333.7703630744165

>  <compound_id>  (96) 
46199

>  <target_id>  (96) 
1

>  <reference_id>  (96) 
127

>  <inspiration_ids>  (96) 
[93, 127]

>  <energy_score>  (96) 
1309.3388336506237

>  <distance_score>  (96) 
6.9496165446237965

>  <path>  (96) 
/opt/xchem-fragalysis-2/maxwin/BulkDock/SCRATCH/511023/C46199-P127/C46199-P127.minimised.mol

>  <scratch_subdir>  (96) 
/opt/xchem-fragalysis-2/maxwin/BulkDock/SCRATCH/511023/C46199-P127

>  <fragmenstein_runtime>  (96) 
17.68298077583313

>  <fragmenstein_outcome>  (96) 
too moved

>  <fragmenstein_mode>  (96) 
expansion

>  <fragmenstein_error>  (96) 


$$$$
C46147-P93
     RDKit          3D

 44 47  0  0  0  0  0  0  0  0999 V2000
    9.6382    0.5189   13.3330 C   0  0  0  0  0  0  0  0  0  0  0  0
    8.7479   -0.3272   14.2704 C   0  0  0  0  0  0  0  0  0  0  0  0
    7.3279   -1.1726   13.7105 N   0  0  0  0  0  0  0  0  0  0  0  0
    6.3738   -1.0014   12.1775 C   0  0  0  0  0  0  0  0  0  0  0  0
    4.5966   -0.6644   11.3833 C   0  0  0  0  0  0  0  0  0  0  0  0
    3.8649    0.6225   11.0714 C   0  0  0  0  0  0  0  0  0  0  0  0
    2.6906    0.4930   10.3912 C   0  0  0  0  0  0  0  0  0  0  0  0
    1.7516   -0.9869   10.7220 C   0  0  0  0  0  0  0  0  0  0  0  0
   -0.0031   -1.1097   10.3128 C   0  0  0  0  0  0  0  0  0  0  0  0
   -1.4507   -1.0408    9.0666 C   0  0  0  0  0  0  0  0  0  0  0  0
   -2.6433   -0.4988    9.0192 C   0  0  0  0  0  0  0  0  0  0  0  0
   -2.3880    0.0683   10.1287 N   0  0  0  0  0  0  0  0  0  0  0  0
   -1.3179   -0.8353   11.4337 N   0  0  0  0  0  0  0  0  0  0  0  0
    3.2287   -1.9610   11.3830 O   0  0  0  0  0  0  0  0  0  0  0  0
    9.8953   -1.0172   15.1372 C   0  0  0  0  0  0  0  0  0  0  0  0
   10.1589   -2.3822   15.0907 C   0  0  0  0  0  0  0  0  0  0  0  0
   11.3657   -2.9556   15.5284 C   0  0  0  0  0  0  0  0  0  0  0  0
   12.3677   -2.1326   15.9840 C   0  0  0  0  0  0  0  0  0  0  0  0
   12.1563   -0.7615   16.0555 C   0  0  0  0  0  0  0  0  0  0  0  0
   10.9257   -0.2060   15.6981 C   0  0  0  0  0  0  0  0  0  0  0  0
   13.4004   -0.0656   16.5225 C   0  0  0  0  0  0  0  0  0  0  0  0
   14.4603   -1.1610   16.3261 C   0  0  0  0  0  0  0  0  0  0  0  0
   13.7316   -2.5023   16.4729 C   0  0  0  0  0  0  0  0  0  0  0  0
    9.1082    0.6758   12.4344 H   0  0  0  0  0  0  0  0  0  0  0  0
    9.9018    1.4922   13.7647 H   0  0  0  0  0  0  0  0  0  0  0  0
   10.6017    0.0764   13.0481 H   0  0  0  0  0  0  0  0  0  0  0  0
    8.3326    0.3201   15.0518 H   0  0  0  0  0  0  0  0  0  0  0  0
    7.8540   -2.0096   13.4093 H   0  0  0  0  0  0  0  0  0  0  0  0
    6.2165   -2.0669   12.3045 H   0  0  0  0  0  0  0  0  0  0  0  0
    7.0922   -0.9116   11.3667 H   0  0  0  0  0  0  0  0  0  0  0  0
    4.1954    1.6506   11.1513 H   0  0  0  0  0  0  0  0  0  0  0  0
    2.2593    1.2691    9.7505 H   0  0  0  0  0  0  0  0  0  0  0  0
   -1.4333   -1.5666    8.1182 H   0  0  0  0  0  0  0  0  0  0  0  0
   -3.4949   -0.3718    8.3756 H   0  0  0  0  0  0  0  0  0  0  0  0
   -1.1467   -0.3113   12.2710 H   0  0  0  0  0  0  0  0  0  0  0  0
    9.3904   -3.0282   14.7006 H   0  0  0  0  0  0  0  0  0  0  0  0
   11.4995   -4.0296   15.4976 H   0  0  0  0  0  0  0  0  0  0  0  0
   10.8159    0.8757   15.7407 H   0  0  0  0  0  0  0  0  0  0  0  0
   13.6296    0.8191   15.9217 H   0  0  0  0  0  0  0  0  0  0  0  0
   13.3261    0.2108   17.5764 H   0  0  0  0  0  0  0  0  0  0  0  0
   15.2987   -1.0614   17.0225 H   0  0  0  0  0  0  0  0  0  0  0  0
   14.8725   -1.0837   15.3102 H   0  0  0  0  0  0  0  0  0  0  0  0
   13.6845   -2.8193   17.5197 H   0  0  0  0  0  0  0  0  0  0  0  0
   14.2028   -3.2807   15.8680 H   0  0  0  0  0  0  0  0  0  0  0  0
  1  2  1  0
  2  3  1  0
  3  4  1  0
  4  5  1  0
  5  6  2  0
  6  7  1  0
  7  8  2  0
  8  9  1  0
  9 10  2  0
 10 11  1  0
 11 12  2  0
 12 13  1  0
  8 14  1  0
  2 15  1  0
 15 16  2  0
 16 17  1  0
 17 18  2  0
 18 19  1  0
 19 20  2  0
 19 21  1  0
 21 22  1  0
 22 23  1  0
 14  5  1  0
 20 15  1  0
 13  9  1  0
 23 18  1  0
  1 24  1  0
  1 25  1  0
  1 26  1  0
  2 27  1  0
  3 28  1  0
  4 29  1  0
  4 30  1  0
  6 31  1  0
  7 32  1  0
 10 33  1  0
 11 34  1  0
 13 35  1  0
 16 36  1  0
 17 37  1  0
 20 38  1  0
 21 39  1  0
 21 40  1  0
 22 41  1  0
 22 42  1  0
 23 43  1  0
 23 44  1  0
M  END
>  <Energy>  (97) 
772.76946167232074

>  <compound_id>  (97) 
46147

>  <target_id>  (97) 
1

>  <reference_id>  (97) 
93

>  <inspiration_ids>  (97) 
[93, 99]

>  <energy_score>  (97) 
703.3836220883021

>  <distance_score>  (97) 
6.155428747515103

>  <path>  (97) 
/opt/xchem-fragalysis-2/maxwin/BulkDock/SCRATCH/511023/C46147-P93/C46147-P93.minimised.mol

>  <scratch_subdir>  (97) 
/opt/xchem-fragalysis-2/maxwin/BulkDock/SCRATCH/511023/C46147-P93

>  <fragmenstein_runtime>  (97) 
9.074710607528687

>  <fragmenstein_outcome>  (97) 
too moved

>  <fragmenstein_mode>  (97) 
expansion

>  <fragmenstein_error>  (97) 


$$$$
C46147-P99
     RDKit          3D

 44 47  0  0  0  0  0  0  0  0999 V2000
    9.2015    1.0432   12.9801 C   0  0  0  0  0  0  0  0  0  0  0  0
    8.2735    0.0732   13.7897 C   0  0  0  0  0  0  0  0  0  0  0  0
    6.6909   -0.6877   13.1345 N   0  0  0  0  0  0  0  0  0  0  0  0
    5.2555   -0.4536   11.8161 C   0  0  0  0  0  0  0  0  0  0  0  0
    3.1532   -0.1947   11.3186 C   0  0  0  0  0  0  0  0  0  0  0  0
    1.7441   -0.0724   12.2085 C   0  0  0  0  0  0  0  0  0  0  0  0
    0.2206   -0.9985   11.6881 C   0  0  0  0  0  0  0  0  0  0  0  0
    0.1849   -1.2027   10.0679 C   0  0  0  0  0  0  0  0  0  0  0  0
   -1.3989   -1.2865    8.8120 C   0  0  0  0  0  0  0  0  0  0  0  0
   -2.4050   -0.2926    8.1768 C   0  0  0  0  0  0  0  0  0  0  0  0
   -3.2812   -0.8731    7.2349 C   0  0  0  0  0  0  0  0  0  0  0  0
   -3.1597   -2.1660    7.3513 N   0  0  0  0  0  0  0  0  0  0  0  0
   -2.5828   -2.1822    8.5644 N   0  0  0  0  0  0  0  0  0  0  0  0
    1.9172   -1.4949   10.6899 O   0  0  0  0  0  0  0  0  0  0  0  0
    9.3826   -0.7138   14.6973 C   0  0  0  0  0  0  0  0  0  0  0  0
    9.3753   -2.0809   14.8226 C   0  0  0  0  0  0  0  0  0  0  0  0
   10.5845   -2.7982   15.0198 C   0  0  0  0  0  0  0  0  0  0  0  0
   11.7756   -2.1510   15.2234 C   0  0  0  0  0  0  0  0  0  0  0  0
   11.7928   -0.7744   15.2145 C   0  0  0  0  0  0  0  0  0  0  0  0
   10.6118   -0.0519   15.0419 C   0  0  0  0  0  0  0  0  0  0  0  0
   13.2130   -0.2995   15.1968 C   0  0  0  0  0  0  0  0  0  0  0  0
   13.9455   -1.5064   15.7975 C   0  0  0  0  0  0  0  0  0  0  0  0
   13.1450   -2.7380   15.3577 C   0  0  0  0  0  0  0  0  0  0  0  0
   10.2146    0.6910   12.7439 H   0  0  0  0  0  0  0  0  0  0  0  0
    8.7810    1.2308   12.0350 H   0  0  0  0  0  0  0  0  0  0  0  0
    9.3899    1.9848   13.5090 H   0  0  0  0  0  0  0  0  0  0  0  0
    7.9874    0.6655   14.6801 H   0  0  0  0  0  0  0  0  0  0  0  0
    7.2412   -1.3053   12.5117 H   0  0  0  0  0  0  0  0  0  0  0  0
    5.9799   -0.4147   10.9433 H   0  0  0  0  0  0  0  0  0  0  0  0
    5.4220   -1.5593   12.0630 H   0  0  0  0  0  0  0  0  0  0  0  0
    1.6172    0.7243   12.9363 H   0  0  0  0  0  0  0  0  0  0  0  0
   -0.7040   -0.7361   12.1811 H   0  0  0  0  0  0  0  0  0  0  0  0
   -2.4630    0.7755    8.2767 H   0  0  0  0  0  0  0  0  0  0  0  0
   -3.9776   -0.4357    6.5342 H   0  0  0  0  0  0  0  0  0  0  0  0
   -2.8835   -2.9549    9.1278 H   0  0  0  0  0  0  0  0  0  0  0  0
    8.4393   -2.5919   14.6491 H   0  0  0  0  0  0  0  0  0  0  0  0
   10.6072   -3.8757   14.9666 H   0  0  0  0  0  0  0  0  0  0  0  0
   10.6929    1.0312   14.9921 H   0  0  0  0  0  0  0  0  0  0  0  0
   13.5301   -0.1294   14.1616 H   0  0  0  0  0  0  0  0  0  0  0  0
   13.3758    0.6046   15.7697 H   0  0  0  0  0  0  0  0  0  0  0  0
   13.9293   -1.4366   16.8935 H   0  0  0  0  0  0  0  0  0  0  0  0
   14.9945   -1.5568   15.4899 H   0  0  0  0  0  0  0  0  0  0  0  0
   13.1883   -3.5360   16.1041 H   0  0  0  0  0  0  0  0  0  0  0  0
   13.4933   -3.1072   14.3881 H   0  0  0  0  0  0  0  0  0  0  0  0
  1  2  1  0
  2  3  1  0
  3  4  1  0
  4  5  1  0
  5  6  2  0
  6  7  1  0
  7  8  2  0
  8  9  1  0
  9 10  2  0
 10 11  1  0
 11 12  2  0
 12 13  1  0
  8 14  1  0
  2 15  1  0
 15 16  2  0
 16 17  1  0
 17 18  2  0
 18 19  1  0
 19 20  2  0
 19 21  1  0
 21 22  1  0
 22 23  1  0
 14  5  1  0
 20 15  1  0
 13  9  1  0
 23 18  1  0
  1 24  1  0
  1 25  1  0
  1 26  1  0
  2 27  1  0
  3 28  1  0
  4 29  1  0
  4 30  1  0
  6 31  1  0
  7 32  1  0
 10 33  1  0
 11 34  1  0
 13 35  1  0
 16 36  1  0
 17 37  1  0
 20 38  1  0
 21 39  1  0
 21 40  1  0
 22 41  1  0
 22 42  1  0
 23 43  1  0
 23 44  1  0
M  END
>  <Energy>  (98) 
939.87454484181865

>  <compound_id>  (98) 
46147

>  <target_id>  (98) 
1

>  <reference_id>  (98) 
99

>  <inspiration_ids>  (98) 
[93, 99]

>  <energy_score>  (98) 
870.4887052578058

>  <distance_score>  (98) 
5.942267052519607

>  <path>  (98) 
/opt/xchem-fragalysis-2/maxwin/BulkDock/SCRATCH/511023/C46147-P99/C46147-P99.minimised.mol

>  <scratch_subdir>  (98) 
/opt/xchem-fragalysis-2/maxwin/BulkDock/SCRATCH/511023/C46147-P99

>  <fragmenstein_runtime>  (98) 
7.632444143295288

>  <fragmenstein_outcome>  (98) 
too moved

>  <fragmenstein_mode>  (98) 
expansion

>  <fragmenstein_error>  (98) 


$$$$
C46154-P93
     RDKit          3D

 36 38  0  0  0  0  0  0  0  0999 V2000
   -4.8723   -0.1482    8.5021 C   0  0  0  0  0  0  0  0  0  0  0  0
   -5.3776    0.0090    7.0823 C   0  0  0  0  0  0  0  0  0  0  0  0
   -5.7979    1.3703    6.7033 N   0  0  0  0  0  0  0  0  0  0  0  0
   -6.8241    2.0164    7.5267 C   0  0  0  0  0  0  0  0  0  0  0  0
   -7.7829    2.7777    6.6480 C   0  0  0  0  0  0  0  0  0  0  0  0
   -7.9297    2.4844    5.3321 N   0  0  0  0  0  0  0  0  0  0  0  0
   -8.8478    3.3764    4.8804 N   0  0  0  0  0  0  0  0  0  0  0  0
   -9.2831    4.1789    5.8703 C   0  0  0  0  0  0  0  0  0  0  0  0
   -8.6292    3.8290    7.0105 C   0  0  0  0  0  0  0  0  0  0  0  0
   -9.0340    4.6654    8.1513 C   0  0  0  0  0  0  0  0  0  0  0  0
  -10.2890    5.4141    7.5675 C   0  0  0  0  0  0  0  0  0  0  0  0
  -10.2327    5.2891    6.0024 C   0  0  0  0  0  0  0  0  0  0  0  0
   -6.3042   -1.1239    6.7731 C   0  0  0  0  0  0  0  0  0  0  0  0
   -7.6476   -0.9702    6.4602 C   0  0  0  0  0  0  0  0  0  0  0  0
   -8.4469   -2.0851    6.2510 C   0  0  0  0  0  0  0  0  0  0  0  0
   -7.8586   -3.3261    6.3587 C   0  0  0  0  0  0  0  0  0  0  0  0
   -6.5627   -3.5256    6.6345 N   0  0  0  0  0  0  0  0  0  0  0  0
   -5.8221   -2.4293    6.8290 C   0  0  0  0  0  0  0  0  0  0  0  0
   -4.5211   -2.6391    7.0733 F   0  0  0  0  0  0  0  0  0  0  0  0
   -5.7227   -0.1862    9.1821 H   0  0  0  0  0  0  0  0  0  0  0  0
   -4.1690    0.6395    8.7637 H   0  0  0  0  0  0  0  0  0  0  0  0
   -4.3086   -1.0735    8.6452 H   0  0  0  0  0  0  0  0  0  0  0  0
   -4.5073   -0.1594    6.4606 H   0  0  0  0  0  0  0  0  0  0  0  0
   -6.1733    1.3433    5.7456 H   0  0  0  0  0  0  0  0  0  0  0  0
   -7.3885    1.3172    8.1515 H   0  0  0  0  0  0  0  0  0  0  0  0
   -6.3349    2.7489    8.1694 H   0  0  0  0  0  0  0  0  0  0  0  0
   -9.1067    3.3566    3.8989 H   0  0  0  0  0  0  0  0  0  0  0  0
   -8.2483    5.3826    8.4088 H   0  0  0  0  0  0  0  0  0  0  0  0
   -9.3017    4.0820    9.0361 H   0  0  0  0  0  0  0  0  0  0  0  0
  -10.3342    6.4574    7.8957 H   0  0  0  0  0  0  0  0  0  0  0  0
  -11.1983    4.9168    7.9307 H   0  0  0  0  0  0  0  0  0  0  0  0
   -9.8354    6.2068    5.5584 H   0  0  0  0  0  0  0  0  0  0  0  0
  -11.2194    5.0711    5.5863 H   0  0  0  0  0  0  0  0  0  0  0  0
   -8.1141    0.0022    6.3608 H   0  0  0  0  0  0  0  0  0  0  0  0
   -9.4984   -1.9853    6.0070 H   0  0  0  0  0  0  0  0  0  0  0  0
   -8.4383   -4.2329    6.2016 H   0  0  0  0  0  0  0  0  0  0  0  0
  1  2  1  0
  2  3  1  0
  3  4  1  0
  4  5  1  0
  5  6  2  0
  6  7  1  0
  7  8  1  0
  8  9  2  0
  9 10  1  0
 10 11  1  0
 11 12  1  0
  2 13  1  0
 13 14  2  0
 14 15  1  0
 15 16  2  0
 16 17  1  0
 17 18  2  0
 18 19  1  0
  9  5  1  0
 18 13  1  0
 12  8  1  0
  1 20  1  0
  1 21  1  0
  1 22  1  0
  2 23  1  0
  3 24  1  0
  4 25  1  0
  4 26  1  0
  7 27  1  0
 10 28  1  0
 10 29  1  0
 11 30  1  0
 11 31  1  0
 12 32  1  0
 12 33  1  0
 14 34  1  0
 15 35  1  0
 16 36  1  0
M  END
>  <Energy>  (99) 
60.277958924179693

>  <compound_id>  (99) 
46154

>  <target_id>  (99) 
1

>  <reference_id>  (99) 
93

>  <inspiration_ids>  (99) 
[93, 99]

>  <energy_score>  (99) 
-25.406057610952757

>  <distance_score>  (99) 
3.244631238578358

>  <path>  (99) 
/opt/xchem-fragalysis-2/maxwin/BulkDock/SCRATCH/511023/C46154-P93/C46154-P93.minimised.mol

>  <scratch_subdir>  (99) 
/opt/xchem-fragalysis-2/maxwin/BulkDock/SCRATCH/511023/C46154-P93

>  <fragmenstein_runtime>  (99) 
2.409193277359009

>  <fragmenstein_outcome>  (99) 
too moved

>  <fragmenstein_mode>  (99) 
expansion

>  <fragmenstein_error>  (99) 


$$$$
C46154-P99
     RDKit          3D

 36 38  0  0  0  0  0  0  0  0999 V2000
   -5.3556   -2.6697    3.7580 C   0  0  0  0  0  0  0  0  0  0  0  0
   -4.7142   -1.3609    4.2418 C   0  0  0  0  0  0  0  0  0  0  0  0
   -5.1581   -0.2240    3.4296 N   0  0  0  0  0  0  0  0  0  0  0  0
   -4.5803   -0.1651    2.0815 C   0  0  0  0  0  0  0  0  0  0  0  0
   -3.4006    0.7644    2.0410 C   0  0  0  0  0  0  0  0  0  0  0  0
   -3.4306    1.9564    2.6838 N   0  0  0  0  0  0  0  0  0  0  0  0
   -2.2591    2.5594    2.3574 N   0  0  0  0  0  0  0  0  0  0  0  0
   -1.5051    1.7668    1.5725 C   0  0  0  0  0  0  0  0  0  0  0  0
   -2.1891    0.6104    1.3593 C   0  0  0  0  0  0  0  0  0  0  0  0
   -1.4329   -0.3097    0.4968 C   0  0  0  0  0  0  0  0  0  0  0  0
   -0.2714    0.6131   -0.0261 C   0  0  0  0  0  0  0  0  0  0  0  0
   -0.1954    1.8636    0.9194 C   0  0  0  0  0  0  0  0  0  0  0  0
   -5.0427   -1.1305    5.7012 C   0  0  0  0  0  0  0  0  0  0  0  0
   -4.0426   -0.9459    6.6615 C   0  0  0  0  0  0  0  0  0  0  0  0
   -4.3879   -0.5912    7.9566 C   0  0  0  0  0  0  0  0  0  0  0  0
   -5.7296   -0.4754    8.2623 C   0  0  0  0  0  0  0  0  0  0  0  0
   -6.7238   -0.7214    7.3966 N   0  0  0  0  0  0  0  0  0  0  0  0
   -6.3601   -1.0332    6.1394 C   0  0  0  0  0  0  0  0  0  0  0  0
   -7.3682   -1.2127    5.2723 F   0  0  0  0  0  0  0  0  0  0  0  0
   -6.4487   -2.6166    3.7218 H   0  0  0  0  0  0  0  0  0  0  0  0
   -5.0921   -3.4988    4.4220 H   0  0  0  0  0  0  0  0  0  0  0  0
   -5.0273   -2.9358    2.7522 H   0  0  0  0  0  0  0  0  0  0  0  0
   -3.6254   -1.4519    4.1601 H   0  0  0  0  0  0  0  0  0  0  0  0
   -4.8837    0.6555    3.8831 H   0  0  0  0  0  0  0  0  0  0  0  0
   -5.3441    0.2372    1.4055 H   0  0  0  0  0  0  0  0  0  0  0  0
   -4.3055   -1.1493    1.6920 H   0  0  0  0  0  0  0  0  0  0  0  0
   -2.0644    3.4880    2.7214 H   0  0  0  0  0  0  0  0  0  0  0  0
   -2.0253   -0.7022   -0.3337 H   0  0  0  0  0  0  0  0  0  0  0  0
   -1.0212   -1.1392    1.0802 H   0  0  0  0  0  0  0  0  0  0  0  0
   -0.5158    0.9496   -1.0423 H   0  0  0  0  0  0  0  0  0  0  0  0
    0.6832    0.0795   -0.0795 H   0  0  0  0  0  0  0  0  0  0  0  0
   -0.0613    2.7851    0.3473 H   0  0  0  0  0  0  0  0  0  0  0  0
    0.6197    1.7511    1.6373 H   0  0  0  0  0  0  0  0  0  0  0  0
   -2.9953   -1.0330    6.3951 H   0  0  0  0  0  0  0  0  0  0  0  0
   -3.6294   -0.3955    8.7033 H   0  0  0  0  0  0  0  0  0  0  0  0
   -6.0662   -0.1835    9.2485 H   0  0  0  0  0  0  0  0  0  0  0  0
  1  2  1  0
  2  3  1  0
  3  4  1  0
  4  5  1  0
  5  6  2  0
  6  7  1  0
  7  8  1  0
  8  9  2  0
  9 10  1  0
 10 11  1  0
 11 12  1  0
  2 13  1  0
 13 14  2  0
 14 15  1  0
 15 16  2  0
 16 17  1  0
 17 18  2  0
 18 19  1  0
  9  5  1  0
 18 13  1  0
 12  8  1  0
  1 20  1  0
  1 21  1  0
  1 22  1  0
  2 23  1  0
  3 24  1  0
  4 25  1  0
  4 26  1  0
  7 27  1  0
 10 28  1  0
 10 29  1  0
 11 30  1  0
 11 31  1  0
 12 32  1  0
 12 33  1  0
 14 34  1  0
 15 35  1  0
 16 36  1  0
M  END
>  <Energy>  (100) 
57.891156523685723

>  <compound_id>  (100) 
46154

>  <target_id>  (100) 
1

>  <reference_id>  (100) 
99

>  <inspiration_ids>  (100) 
[93, 99]

>  <energy_score>  (100) 
-27.79286001144763

>  <distance_score>  (100) 
1.4714766142398925

>  <path>  (100) 
/opt/xchem-fragalysis-2/maxwin/BulkDock/SCRATCH/511023/C46154-P99/C46154-P99.minimised.mol

>  <scratch_subdir>  (100) 
/opt/xchem-fragalysis-2/maxwin/BulkDock/SCRATCH/511023/C46154-P99

>  <fragmenstein_runtime>  (100) 
1.6895925998687744

>  <fragmenstein_outcome>  (100) 
too moved

>  <fragmenstein_mode>  (100) 
expansion

>  <fragmenstein_error>  (100) 


$$$$
C46156-P93
     RDKit          3D

 42 44  0  0  0  0  0  0  0  0999 V2000
   -1.3807   -0.7351    9.2721 C   0  0  0  0  0  0  0  0  0  0  0  0
    0.5833   -0.7457   10.0596 C   0  0  0  0  0  0  0  0  0  0  0  0
    1.0428   -1.9093    9.7649 N   0  0  0  0  0  0  0  0  0  0  0  0
    1.3302   -2.1438    8.4910 C   0  0  0  0  0  0  0  0  0  0  0  0
    1.9752   -0.7810    7.8987 C   0  0  0  0  0  0  0  0  0  0  0  0
    2.1571    0.8598    8.3326 C   0  0  0  0  0  0  0  0  0  0  0  0
    1.8950    0.5162    9.6408 C   0  0  0  0  0  0  0  0  0  0  0  0
    3.4854    0.8229   10.7940 C   0  0  0  0  0  0  0  0  0  0  0  0
    4.0181    2.2024   10.3215 C   0  0  0  0  0  0  0  0  0  0  0  0
    4.8388   -0.3940   11.1634 N   0  0  0  0  0  0  0  0  0  0  0  0
    6.4316   -0.8181   12.1511 C   0  0  0  0  0  0  0  0  0  0  0  0
    8.0365   -0.2989   13.0223 C   0  0  0  0  0  0  0  0  0  0  0  0
    8.9669    0.5599   12.5046 N   0  0  0  0  0  0  0  0  0  0  0  0
   10.1202    0.6228   13.1297 N   0  0  0  0  0  0  0  0  0  0  0  0
   10.0696   -0.1502   14.1763 C   0  0  0  0  0  0  0  0  0  0  0  0
    8.7139   -0.4647   14.3403 C   0  0  0  0  0  0  0  0  0  0  0  0
    8.3994   -0.7168   15.7210 C   0  0  0  0  0  0  0  0  0  0  0  0
    9.2097    0.3690   16.4886 C   0  0  0  0  0  0  0  0  0  0  0  0
   10.7718    0.2603   16.2872 C   0  0  0  0  0  0  0  0  0  0  0  0
   11.2122   -0.3640   15.0084 C   0  0  0  0  0  0  0  0  0  0  0  0
   -1.6600   -0.1182    8.3760 H   0  0  0  0  0  0  0  0  0  0  0  0
   -1.7946   -1.6096    8.7137 H   0  0  0  0  0  0  0  0  0  0  0  0
   -2.1972   -0.1624    9.7146 H   0  0  0  0  0  0  0  0  0  0  0  0
    1.6465   -3.1389    8.2125 H   0  0  0  0  0  0  0  0  0  0  0  0
    2.7841   -1.1289    7.2826 H   0  0  0  0  0  0  0  0  0  0  0  0
    2.9484    1.4594    7.8908 H   0  0  0  0  0  0  0  0  0  0  0  0
    3.0323    0.9919   11.7736 H   0  0  0  0  0  0  0  0  0  0  0  0
    4.4880    2.7708   11.1289 H   0  0  0  0  0  0  0  0  0  0  0  0
    3.1937    2.8380    9.9803 H   0  0  0  0  0  0  0  0  0  0  0  0
    4.7097    2.0910    9.4818 H   0  0  0  0  0  0  0  0  0  0  0  0
    4.2491   -1.1345   11.4886 H   0  0  0  0  0  0  0  0  0  0  0  0
    6.9843   -1.0773   11.2400 H   0  0  0  0  0  0  0  0  0  0  0  0
    6.2623   -1.7794   12.6368 H   0  0  0  0  0  0  0  0  0  0  0  0
   10.8956    1.1419   12.7254 H   0  0  0  0  0  0  0  0  0  0  0  0
    8.7697   -1.7050   15.9376 H   0  0  0  0  0  0  0  0  0  0  0  0
    7.3474   -0.6448   15.9746 H   0  0  0  0  0  0  0  0  0  0  0  0
    8.9011    1.3654   16.1347 H   0  0  0  0  0  0  0  0  0  0  0  0
    8.9037    0.3584   17.5181 H   0  0  0  0  0  0  0  0  0  0  0  0
   11.2720   -0.4134   16.9697 H   0  0  0  0  0  0  0  0  0  0  0  0
   11.2072    1.2633   16.3877 H   0  0  0  0  0  0  0  0  0  0  0  0
   11.3990   -1.4390   15.1233 H   0  0  0  0  0  0  0  0  0  0  0  0
   12.1382    0.0885   14.6384 H   0  0  0  0  0  0  0  0  0  0  0  0
  1  2  1  0
  2  3  2  0
  3  4  1  0
  4  5  2  0
  5  6  1  0
  6  7  2  0
  7  8  1  0
  8  9  1  0
  8 10  1  0
 10 11  1  0
 11 12  1  0
 12 13  2  0
 13 14  1  0
 14 15  1  0
 15 16  2  0
 16 17  1  0
 17 18  1  0
 18 19  1  0
 19 20  1  0
  7  2  1  0
 16 12  1  0
 20 15  1  0
  1 21  1  0
  1 22  1  0
  1 23  1  0
  4 24  1  0
  5 25  1  0
  6 26  1  0
  8 27  1  0
  9 28  1  0
  9 29  1  0
  9 30  1  0
 10 31  1  0
 11 32  1  0
 11 33  1  0
 14 34  1  0
 17 35  1  0
 17 36  1  0
 18 37  1  0
 18 38  1  0
 19 39  1  0
 19 40  1  0
 20 41  1  0
 20 42  1  0
M  END
>  <Energy>  (101) 
731.92558921819341

>  <compound_id>  (101) 
46156

>  <target_id>  (101) 
1

>  <reference_id>  (101) 
93

>  <inspiration_ids>  (101) 
[93, 99]

>  <energy_score>  (101) 
640.0906688119182

>  <distance_score>  (101) 
7.274631327758201

>  <path>  (101) 
/opt/xchem-fragalysis-2/maxwin/BulkDock/SCRATCH/511023/C46156-P93/C46156-P93.minimised.mol

>  <scratch_subdir>  (101) 
/opt/xchem-fragalysis-2/maxwin/BulkDock/SCRATCH/511023/C46156-P93

>  <fragmenstein_runtime>  (101) 
5.622056722640991

>  <fragmenstein_outcome>  (101) 
too moved

>  <fragmenstein_mode>  (101) 
expansion

>  <fragmenstein_error>  (101) 


$$$$
C46156-P99
     RDKit          3D

 42 44  0  0  0  0  0  0  0  0999 V2000
   -2.9087    0.0670    8.9504 C   0  0  0  0  0  0  0  0  0  0  0  0
   -1.7510   -1.3119    9.3892 C   0  0  0  0  0  0  0  0  0  0  0  0
   -2.8014   -2.1474    8.6401 N   0  0  0  0  0  0  0  0  0  0  0  0
   -2.7038   -1.8676    7.4315 C   0  0  0  0  0  0  0  0  0  0  0  0
   -1.4207   -1.4835    7.5052 C   0  0  0  0  0  0  0  0  0  0  0  0
    0.0529   -1.8774    8.8914 C   0  0  0  0  0  0  0  0  0  0  0  0
    0.1824   -1.2020    9.9643 C   0  0  0  0  0  0  0  0  0  0  0  0
    2.0290   -1.4018   11.0309 C   0  0  0  0  0  0  0  0  0  0  0  0
    3.3603   -2.7414   11.6216 C   0  0  0  0  0  0  0  0  0  0  0  0
    3.8735   -0.4628   11.1538 N   0  0  0  0  0  0  0  0  0  0  0  0
    5.7266   -0.6823   11.9253 C   0  0  0  0  0  0  0  0  0  0  0  0
    6.9191   -0.9630   13.2912 C   0  0  0  0  0  0  0  0  0  0  0  0
    6.7006   -1.9406   14.1896 N   0  0  0  0  0  0  0  0  0  0  0  0
    7.8746   -2.1183   14.8355 N   0  0  0  0  0  0  0  0  0  0  0  0
    8.7374   -1.1024   14.8638 C   0  0  0  0  0  0  0  0  0  0  0  0
    8.2613   -0.2383   13.9136 C   0  0  0  0  0  0  0  0  0  0  0  0
    9.1820    0.9467   13.6727 C   0  0  0  0  0  0  0  0  0  0  0  0
   10.7076    0.7361   13.8557 C   0  0  0  0  0  0  0  0  0  0  0  0
   11.1363   -0.5476   14.5496 C   0  0  0  0  0  0  0  0  0  0  0  0
   10.0795   -1.0727   15.5068 C   0  0  0  0  0  0  0  0  0  0  0  0
   -3.8004   -0.2858    8.3994 H   0  0  0  0  0  0  0  0  0  0  0  0
   -3.4880    0.3622    9.7976 H   0  0  0  0  0  0  0  0  0  0  0  0
   -2.5236    0.8100    8.2607 H   0  0  0  0  0  0  0  0  0  0  0  0
   -3.4249   -1.9888    6.6607 H   0  0  0  0  0  0  0  0  0  0  0  0
   -1.0396   -1.4323    6.4608 H   0  0  0  0  0  0  0  0  0  0  0  0
    1.0027   -2.2725    8.2969 H   0  0  0  0  0  0  0  0  0  0  0  0
    1.5406   -0.9266   11.9185 H   0  0  0  0  0  0  0  0  0  0  0  0
    4.3279   -2.6521   12.0433 H   0  0  0  0  0  0  0  0  0  0  0  0
    2.9205   -3.3159   12.4780 H   0  0  0  0  0  0  0  0  0  0  0  0
    3.7199   -3.3989   10.8139 H   0  0  0  0  0  0  0  0  0  0  0  0
    3.7846    0.5490   10.9388 H   0  0  0  0  0  0  0  0  0  0  0  0
    6.4506   -0.5208   11.0929 H   0  0  0  0  0  0  0  0  0  0  0  0
    5.8031   -1.7777   12.0108 H   0  0  0  0  0  0  0  0  0  0  0  0
    8.0437   -3.0043   15.2766 H   0  0  0  0  0  0  0  0  0  0  0  0
    9.0459    1.3723   12.6889 H   0  0  0  0  0  0  0  0  0  0  0  0
    8.9252    1.6887   14.4404 H   0  0  0  0  0  0  0  0  0  0  0  0
   11.1032    1.5950   14.4143 H   0  0  0  0  0  0  0  0  0  0  0  0
   11.2007    0.7885   12.8768 H   0  0  0  0  0  0  0  0  0  0  0  0
   12.0818   -0.3868   15.0811 H   0  0  0  0  0  0  0  0  0  0  0  0
   11.3510   -1.3127   13.7926 H   0  0  0  0  0  0  0  0  0  0  0  0
   10.4309   -2.0566   15.8121 H   0  0  0  0  0  0  0  0  0  0  0  0
   10.0193   -0.4207   16.3792 H   0  0  0  0  0  0  0  0  0  0  0  0
  1  2  1  0
  2  3  2  0
  3  4  1  0
  4  5  2  0
  5  6  1  0
  6  7  2  0
  7  8  1  0
  8  9  1  0
  8 10  1  0
 10 11  1  0
 11 12  1  0
 12 13  2  0
 13 14  1  0
 14 15  1  0
 15 16  2  0
 16 17  1  0
 17 18  1  0
 18 19  1  0
 19 20  1  0
  7  2  1  0
 16 12  1  0
 20 15  1  0
  1 21  1  0
  1 22  1  0
  1 23  1  0
  4 24  1  0
  5 25  1  0
  6 26  1  0
  8 27  1  0
  9 28  1  0
  9 29  1  0
  9 30  1  0
 10 31  1  0
 11 32  1  0
 11 33  1  0
 14 34  1  0
 17 35  1  0
 17 36  1  0
 18 37  1  0
 18 38  1  0
 19 39  1  0
 19 40  1  0
 20 41  1  0
 20 42  1  0
M  END
>  <Energy>  (102) 
1279.63976535501

>  <compound_id>  (102) 
46156

>  <target_id>  (102) 
1

>  <reference_id>  (102) 
99

>  <inspiration_ids>  (102) 
[93, 99]

>  <energy_score>  (102) 
1187.8048449487414

>  <distance_score>  (102) 
7.213122910303992

>  <path>  (102) 
/opt/xchem-fragalysis-2/maxwin/BulkDock/SCRATCH/511023/C46156-P99/C46156-P99.minimised.mol

>  <scratch_subdir>  (102) 
/opt/xchem-fragalysis-2/maxwin/BulkDock/SCRATCH/511023/C46156-P99

>  <fragmenstein_runtime>  (102) 
5.799935340881348

>  <fragmenstein_outcome>  (102) 
too moved

>  <fragmenstein_mode>  (102) 
expansion

>  <fragmenstein_error>  (102) 


$$$$
C46157-P93
     RDKit          3D

 40 42  0  0  0  0  0  0  0  0999 V2000
   10.1524    1.3283   15.3099 C   0  0  0  0  0  0  0  0  0  0  0  0
    9.9535    0.4959   14.0100 C   0  0  0  0  0  0  0  0  0  0  0  0
   11.2225   -0.1297   13.5752 N   0  0  0  0  0  0  0  0  0  0  0  0
   12.4379   -0.1570   14.4003 C   0  0  0  0  0  0  0  0  0  0  0  0
   12.5251   -1.3964   15.2502 C   0  0  0  0  0  0  0  0  0  0  0  0
   11.5476   -2.3224   15.2417 N   0  0  0  0  0  0  0  0  0  0  0  0
   12.0281   -3.3365   15.9779 N   0  0  0  0  0  0  0  0  0  0  0  0
   13.2032   -3.0302   16.5646 C   0  0  0  0  0  0  0  0  0  0  0  0
   13.5818   -1.7913   16.1061 C   0  0  0  0  0  0  0  0  0  0  0  0
   14.8565   -1.1409   16.5127 C   0  0  0  0  0  0  0  0  0  0  0  0
   15.7785   -2.1448   17.2378 C   0  0  0  0  0  0  0  0  0  0  0  0
   14.9999   -3.0723   18.1926 C   0  0  0  0  0  0  0  0  0  0  0  0
   13.9530   -3.9125   17.4620 C   0  0  0  0  0  0  0  0  0  0  0  0
    8.5703   -0.4344   13.9554 C   0  0  0  0  0  0  0  0  0  0  0  0
    8.3523   -1.2504   15.0144 C   0  0  0  0  0  0  0  0  0  0  0  0
    7.4012   -2.2653   14.9198 C   0  0  0  0  0  0  0  0  0  0  0  0
    6.4212   -2.3758   14.0031 C   0  0  0  0  0  0  0  0  0  0  0  0
    6.4809   -1.6021   12.9651 N   0  0  0  0  0  0  0  0  0  0  0  0
    7.5619   -0.8211   12.9010 C   0  0  0  0  0  0  0  0  0  0  0  0
    7.5347   -0.5212   11.6417 O   0  0  0  0  0  0  0  0  0  0  0  0
    9.2145    1.8081   15.6082 H   0  0  0  0  0  0  0  0  0  0  0  0
   10.4576    0.6938   16.1464 H   0  0  0  0  0  0  0  0  0  0  0  0
   10.8914    2.1235   15.1684 H   0  0  0  0  0  0  0  0  0  0  0  0
    9.7766    1.2299   13.2208 H   0  0  0  0  0  0  0  0  0  0  0  0
   10.9770   -1.1148   13.3767 H   0  0  0  0  0  0  0  0  0  0  0  0
   12.5856    0.7448   14.9995 H   0  0  0  0  0  0  0  0  0  0  0  0
   13.2855   -0.1909   13.7042 H   0  0  0  0  0  0  0  0  0  0  0  0
   11.4843   -4.1953   16.0370 H   0  0  0  0  0  0  0  0  0  0  0  0
   14.6242   -0.3105   17.1906 H   0  0  0  0  0  0  0  0  0  0  0  0
   15.3744   -0.7225   15.6430 H   0  0  0  0  0  0  0  0  0  0  0  0
   16.2972   -2.7619   16.4925 H   0  0  0  0  0  0  0  0  0  0  0  0
   16.5503   -1.5976   17.7907 H   0  0  0  0  0  0  0  0  0  0  0  0
   15.7014   -3.7377   18.7089 H   0  0  0  0  0  0  0  0  0  0  0  0
   14.5171   -2.4615   18.9663 H   0  0  0  0  0  0  0  0  0  0  0  0
   14.4589   -4.6710   16.8589 H   0  0  0  0  0  0  0  0  0  0  0  0
   13.2993   -4.4152   18.1815 H   0  0  0  0  0  0  0  0  0  0  0  0
    9.1048   -1.2876   15.7922 H   0  0  0  0  0  0  0  0  0  0  0  0
    7.5902   -3.1146   15.5236 H   0  0  0  0  0  0  0  0  0  0  0  0
    5.6604   -3.1387   14.0688 H   0  0  0  0  0  0  0  0  0  0  0  0
    6.5909   -0.6474   11.4193 H   0  0  0  0  0  0  0  0  0  0  0  0
  1  2  1  0
  2  3  1  0
  3  4  1  0
  4  5  1  0
  5  6  2  0
  6  7  1  0
  7  8  1  0
  8  9  2  0
  9 10  1  0
 10 11  1  0
 11 12  1  0
 12 13  1  0
  2 14  1  0
 14 15  2  0
 15 16  1  0
 16 17  2  0
 17 18  1  0
 18 19  2  0
 19 20  1  0
  9  5  1  0
 19 14  1  0
 13  8  1  0
  1 21  1  0
  1 22  1  0
  1 23  1  0
  2 24  1  0
  3 25  1  0
  4 26  1  0
  4 27  1  0
  7 28  1  0
 10 29  1  0
 10 30  1  0
 11 31  1  0
 11 32  1  0
 12 33  1  0
 12 34  1  0
 13 35  1  0
 13 36  1  0
 15 37  1  0
 16 38  1  0
 17 39  1  0
 20 40  1  0
M  END
>  <Energy>  (103) 
68.296753651023494

>  <compound_id>  (103) 
46157

>  <target_id>  (103) 
1

>  <reference_id>  (103) 
93

>  <inspiration_ids>  (103) 
[93, 99]

>  <energy_score>  (103) 
2.8317194734925124

>  <distance_score>  (103) 
7.547695555469288

>  <path>  (103) 
/opt/xchem-fragalysis-2/maxwin/BulkDock/SCRATCH/511023/C46157-P93/C46157-P93.minimised.mol

>  <scratch_subdir>  (103) 
/opt/xchem-fragalysis-2/maxwin/BulkDock/SCRATCH/511023/C46157-P93

>  <fragmenstein_runtime>  (103) 
3.485006093978882

>  <fragmenstein_outcome>  (103) 
too moved

>  <fragmenstein_mode>  (103) 
expansion

>  <fragmenstein_error>  (103) 


$$$$
C46157-P99
     RDKit          3D

 40 42  0  0  0  0  0  0  0  0999 V2000
    6.9771   -0.5906   11.1512 C   0  0  0  0  0  0  0  0  0  0  0  0
    5.7295   -0.4711   11.9632 C   0  0  0  0  0  0  0  0  0  0  0  0
    6.6429   -0.8025   13.5607 N   0  0  0  0  0  0  0  0  0  0  0  0
    8.2024   -0.1904   14.0466 C   0  0  0  0  0  0  0  0  0  0  0  0
    9.3026   -1.0677   14.6298 C   0  0  0  0  0  0  0  0  0  0  0  0
    9.1032   -2.3529   14.9066 N   0  0  0  0  0  0  0  0  0  0  0  0
   10.3582   -2.8707   15.0519 N   0  0  0  0  0  0  0  0  0  0  0  0
   11.3220   -1.9252   15.0895 C   0  0  0  0  0  0  0  0  0  0  0  0
   10.6948   -0.7350   14.7985 C   0  0  0  0  0  0  0  0  0  0  0  0
   11.4718    0.5129   14.5750 C   0  0  0  0  0  0  0  0  0  0  0  0
   12.9632    0.1951   14.3116 C   0  0  0  0  0  0  0  0  0  0  0  0
   13.5406   -0.8637   15.2706 C   0  0  0  0  0  0  0  0  0  0  0  0
   12.7717   -2.1930   15.2294 C   0  0  0  0  0  0  0  0  0  0  0  0
    4.0412    0.2646   11.0221 C   0  0  0  0  0  0  0  0  0  0  0  0
    2.6509   -0.0883   11.4589 C   0  0  0  0  0  0  0  0  0  0  0  0
    1.7891   -1.3273   11.0103 C   0  0  0  0  0  0  0  0  0  0  0  0
    1.4239   -1.0190    9.6123 C   0  0  0  0  0  0  0  0  0  0  0  0
    1.9845    0.6703    9.3934 N   0  0  0  0  0  0  0  0  0  0  0  0
    3.4138    1.1669   10.1329 C   0  0  0  0  0  0  0  0  0  0  0  0
    3.9405    2.2430    9.5128 O   0  0  0  0  0  0  0  0  0  0  0  0
    7.2982   -1.6138   11.1698 H   0  0  0  0  0  0  0  0  0  0  0  0
    7.7163    0.0128   11.6276 H   0  0  0  0  0  0  0  0  0  0  0  0
    6.8181   -0.2982   10.1272 H   0  0  0  0  0  0  0  0  0  0  0  0
    5.5682   -1.5413   12.0866 H   0  0  0  0  0  0  0  0  0  0  0  0
    6.9195   -1.7838   13.4455 H   0  0  0  0  0  0  0  0  0  0  0  0
    7.9951    0.3960   14.9633 H   0  0  0  0  0  0  0  0  0  0  0  0
    8.5646    0.5364   13.3166 H   0  0  0  0  0  0  0  0  0  0  0  0
   10.4422   -3.8772   15.1993 H   0  0  0  0  0  0  0  0  0  0  0  0
   11.3799    1.1545   15.4569 H   0  0  0  0  0  0  0  0  0  0  0  0
   11.0663    1.0712   13.7239 H   0  0  0  0  0  0  0  0  0  0  0  0
   13.5476    1.1195   14.3826 H   0  0  0  0  0  0  0  0  0  0  0  0
   13.0728   -0.1708   13.2819 H   0  0  0  0  0  0  0  0  0  0  0  0
   14.5948   -1.0461   15.0322 H   0  0  0  0  0  0  0  0  0  0  0  0
   13.5206   -0.4658   16.2897 H   0  0  0  0  0  0  0  0  0  0  0  0
   12.9800   -2.7760   16.1330 H   0  0  0  0  0  0  0  0  0  0  0  0
   13.1120   -2.7809   14.3684 H   0  0  0  0  0  0  0  0  0  0  0  0
    2.1795    0.6102   12.1892 H   0  0  0  0  0  0  0  0  0  0  0  0
    0.8623   -1.3318   11.6086 H   0  0  0  0  0  0  0  0  0  0  0  0
    0.3974   -1.2392    9.4365 H   0  0  0  0  0  0  0  0  0  0  0  0
    3.3343    2.3272    8.7554 H   0  0  0  0  0  0  0  0  0  0  0  0
  1  2  1  0
  2  3  1  0
  3  4  1  0
  4  5  1  0
  5  6  2  0
  6  7  1  0
  7  8  1  0
  8  9  2  0
  9 10  1  0
 10 11  1  0
 11 12  1  0
 12 13  1  0
  2 14  1  0
 14 15  2  0
 15 16  1  0
 16 17  2  0
 17 18  1  0
 18 19  2  0
 19 20  1  0
  9  5  1  0
 19 14  1  0
 13  8  1  0
  1 21  1  0
  1 22  1  0
  1 23  1  0
  2 24  1  0
  3 25  1  0
  4 26  1  0
  4 27  1  0
  7 28  1  0
 10 29  1  0
 10 30  1  0
 11 31  1  0
 11 32  1  0
 12 33  1  0
 12 34  1  0
 13 35  1  0
 13 36  1  0
 15 37  1  0
 16 38  1  0
 17 39  1  0
 20 40  1  0
M  END
>  <Energy>  (104) 
519.69247619635905

>  <compound_id>  (104) 
46157

>  <target_id>  (104) 
1

>  <reference_id>  (104) 
99

>  <inspiration_ids>  (104) 
[93, 99]

>  <energy_score>  (104) 
461.48223075039505

>  <distance_score>  (104) 
6.297134779794367

>  <path>  (104) 
/opt/xchem-fragalysis-2/maxwin/BulkDock/SCRATCH/511023/C46157-P99/C46157-P99.minimised.mol

>  <scratch_subdir>  (104) 
/opt/xchem-fragalysis-2/maxwin/BulkDock/SCRATCH/511023/C46157-P99

>  <fragmenstein_runtime>  (104) 
5.308469772338867

>  <fragmenstein_outcome>  (104) 
too moved

>  <fragmenstein_mode>  (104) 
expansion

>  <fragmenstein_error>  (104) 


$$$$
C46158-P93
     RDKit          3D

 39 41  0  0  0  0  0  0  0  0999 V2000
   -4.8632    0.3579    6.1255 C   0  0  0  0  0  0  0  0  0  0  0  0
   -3.5975   -0.7867    6.5692 C   0  0  0  0  0  0  0  0  0  0  0  0
   -2.0264   -1.0603    7.3141 N   0  0  0  0  0  0  0  0  0  0  0  0
   -0.5753   -1.4778    6.1569 C   0  0  0  0  0  0  0  0  0  0  0  0
   -0.3921   -1.0098    4.1697 C   0  0  0  0  0  0  0  0  0  0  0  0
    0.3226    0.0261    3.6330 N   0  0  0  0  0  0  0  0  0  0  0  0
    0.0063    0.2412    2.3602 N   0  0  0  0  0  0  0  0  0  0  0  0
   -0.2476   -0.9247    1.7789 C   0  0  0  0  0  0  0  0  0  0  0  0
   -0.3625   -1.8436    2.7940 C   0  0  0  0  0  0  0  0  0  0  0  0
   -0.4867   -3.1839    2.1060 C   0  0  0  0  0  0  0  0  0  0  0  0
   -0.6694   -2.8452    0.5857 C   0  0  0  0  0  0  0  0  0  0  0  0
   -0.2645   -1.3693    0.3877 C   0  0  0  0  0  0  0  0  0  0  0  0
   -4.6291   -2.3091    6.6179 C   0  0  0  0  0  0  0  0  0  0  0  0
   -5.8933   -2.0152    7.1129 C   0  0  0  0  0  0  0  0  0  0  0  0
   -5.8010   -1.2864    8.2503 C   0  0  0  0  0  0  0  0  0  0  0  0
   -4.4936   -1.3106    8.7334 C   0  0  0  0  0  0  0  0  0  0  0  0
   -3.9041   -0.0911    9.2505 C   0  0  0  0  0  0  0  0  0  0  0  0
   -4.1983   -0.1032   10.5482 F   0  0  0  0  0  0  0  0  0  0  0  0
   -2.5864    0.1291    9.1533 F   0  0  0  0  0  0  0  0  0  0  0  0
   -4.4450    0.9749    8.6436 F   0  0  0  0  0  0  0  0  0  0  0  0
   -3.5852   -2.3181    8.4371 N   0  0  0  0  0  0  0  0  0  0  0  0
   -3.9453   -3.0754    7.4467 C   0  0  0  0  0  0  0  0  0  0  0  0
   -5.3149    0.9388    6.9237 H   0  0  0  0  0  0  0  0  0  0  0  0
   -4.5240    1.0245    5.3179 H   0  0  0  0  0  0  0  0  0  0  0  0
   -5.7191   -0.1317    5.6420 H   0  0  0  0  0  0  0  0  0  0  0  0
   -3.0769   -0.5245    5.6372 H   0  0  0  0  0  0  0  0  0  0  0  0
   -2.1205   -1.8808    7.9122 H   0  0  0  0  0  0  0  0  0  0  0  0
    0.3581   -2.0253    6.4413 H   0  0  0  0  0  0  0  0  0  0  0  0
    0.0489   -0.8917    6.6134 H   0  0  0  0  0  0  0  0  0  0  0  0
    0.2348    1.1448    1.9550 H   0  0  0  0  0  0  0  0  0  0  0  0
   -1.3272   -3.8167    2.3744 H   0  0  0  0  0  0  0  0  0  0  0  0
    0.4153   -3.7753    2.2489 H   0  0  0  0  0  0  0  0  0  0  0  0
   -0.0944   -3.5225   -0.0542 H   0  0  0  0  0  0  0  0  0  0  0  0
   -1.7273   -2.9669    0.3177 H   0  0  0  0  0  0  0  0  0  0  0  0
   -0.9917   -0.8327   -0.2272 H   0  0  0  0  0  0  0  0  0  0  0  0
    0.7264   -1.2925   -0.0696 H   0  0  0  0  0  0  0  0  0  0  0  0
   -6.7876   -2.0761    6.5061 H   0  0  0  0  0  0  0  0  0  0  0  0
   -6.5733   -0.6139    8.5949 H   0  0  0  0  0  0  0  0  0  0  0  0
   -3.6154   -4.0885    7.3516 H   0  0  0  0  0  0  0  0  0  0  0  0
  1  2  1  0
  2  3  1  0
  3  4  1  0
  4  5  1  0
  5  6  2  0
  6  7  1  0
  7  8  1  0
  8  9  2  0
  9 10  1  0
 10 11  1  0
 11 12  1  0
  2 13  1  0
 13 14  2  0
 14 15  1  0
 15 16  2  0
 16 17  1  0
 17 18  1  0
 17 19  1  0
 17 20  1  0
 16 21  1  0
 21 22  2  0
  9  5  1  0
 22 13  1  0
 12  8  1  0
  1 23  1  0
  1 24  1  0
  1 25  1  0
  2 26  1  0
  3 27  1  0
  4 28  1  0
  4 29  1  0
  7 30  1  0
 10 31  1  0
 10 32  1  0
 11 33  1  0
 11 34  1  0
 12 35  1  0
 12 36  1  0
 14 37  1  0
 15 38  1  0
 22 39  1  0
M  END
>  <Energy>  (105) 
600.83438137297526

>  <compound_id>  (105) 
46158

>  <target_id>  (105) 
1

>  <reference_id>  (105) 
93

>  <inspiration_ids>  (105) 
[93, 99]

>  <energy_score>  (105) 
440.82175976174744

>  <distance_score>  (105) 
2.1376074676009416

>  <path>  (105) 
/opt/xchem-fragalysis-2/maxwin/BulkDock/SCRATCH/511023/C46158-P93/C46158-P93.minimised.mol

>  <scratch_subdir>  (105) 
/opt/xchem-fragalysis-2/maxwin/BulkDock/SCRATCH/511023/C46158-P93

>  <fragmenstein_runtime>  (105) 
2.693373918533325

>  <fragmenstein_outcome>  (105) 
too moved

>  <fragmenstein_mode>  (105) 
expansion

>  <fragmenstein_error>  (105) 


$$$$
C46158-P99
     RDKit          3D

 39 41  0  0  0  0  0  0  0  0999 V2000
   -7.0695   -2.0904    5.5057 C   0  0  0  0  0  0  0  0  0  0  0  0
   -5.9229   -1.2924    4.8514 C   0  0  0  0  0  0  0  0  0  0  0  0
   -4.5901   -1.8527    5.0608 N   0  0  0  0  0  0  0  0  0  0  0  0
   -4.5379   -3.3050    4.9518 C   0  0  0  0  0  0  0  0  0  0  0  0
   -3.1092   -3.8021    4.6040 C   0  0  0  0  0  0  0  0  0  0  0  0
   -1.8860   -2.3779    4.2228 N   0  0  0  0  0  0  0  0  0  0  0  0
   -0.6807   -3.2369    2.8196 N   0  0  0  0  0  0  0  0  0  0  0  0
   -0.9163   -5.3828    2.7299 C   0  0  0  0  0  0  0  0  0  0  0  0
   -2.5959   -5.6880    3.7312 C   0  0  0  0  0  0  0  0  0  0  0  0
   -3.8177   -6.4670    2.9408 C   0  0  0  0  0  0  0  0  0  0  0  0
   -3.3661   -6.7176    1.5777 C   0  0  0  0  0  0  0  0  0  0  0  0
   -1.8477   -6.8791    1.7834 C   0  0  0  0  0  0  0  0  0  0  0  0
   -6.0009    0.1227    5.3790 C   0  0  0  0  0  0  0  0  0  0  0  0
   -6.5722    1.1401    4.6133 C   0  0  0  0  0  0  0  0  0  0  0  0
   -6.7533    2.4100    5.1569 C   0  0  0  0  0  0  0  0  0  0  0  0
   -6.3403    2.6563    6.4656 C   0  0  0  0  0  0  0  0  0  0  0  0
   -6.5785    4.0387    7.0684 C   0  0  0  0  0  0  0  0  0  0  0  0
   -7.7153    4.1037    7.8167 F   0  0  0  0  0  0  0  0  0  0  0  0
   -5.5600    4.4676    7.8635 F   0  0  0  0  0  0  0  0  0  0  0  0
   -6.7204    5.0094    6.1141 F   0  0  0  0  0  0  0  0  0  0  0  0
   -5.7465    1.6846    7.2178 N   0  0  0  0  0  0  0  0  0  0  0  0
   -5.6075    0.4500    6.6716 C   0  0  0  0  0  0  0  0  0  0  0  0
   -7.1892   -3.0800    5.0529 H   0  0  0  0  0  0  0  0  0  0  0  0
   -8.0278   -1.5710    5.3841 H   0  0  0  0  0  0  0  0  0  0  0  0
   -6.9062   -2.2287    6.5813 H   0  0  0  0  0  0  0  0  0  0  0  0
   -6.1068   -1.2798    3.7691 H   0  0  0  0  0  0  0  0  0  0  0  0
   -3.8768   -1.4316    4.4564 H   0  0  0  0  0  0  0  0  0  0  0  0
   -5.2059   -3.6880    4.1736 H   0  0  0  0  0  0  0  0  0  0  0  0
   -4.8340   -3.6470    5.9431 H   0  0  0  0  0  0  0  0  0  0  0  0
    0.2554   -2.8472    2.7187 H   0  0  0  0  0  0  0  0  0  0  0  0
   -4.7210   -5.8471    2.9428 H   0  0  0  0  0  0  0  0  0  0  0  0
   -4.0430   -7.4518    3.3504 H   0  0  0  0  0  0  0  0  0  0  0  0
   -3.8074   -7.6187    1.1476 H   0  0  0  0  0  0  0  0  0  0  0  0
   -3.6730   -5.9406    0.8809 H   0  0  0  0  0  0  0  0  0  0  0  0
   -1.6086   -6.8052    0.7318 H   0  0  0  0  0  0  0  0  0  0  0  0
   -1.7926   -7.8737    2.1587 H   0  0  0  0  0  0  0  0  0  0  0  0
   -6.9090    0.9444    3.5977 H   0  0  0  0  0  0  0  0  0  0  0  0
   -7.2216    3.1914    4.5637 H   0  0  0  0  0  0  0  0  0  0  0  0
   -5.1491   -0.2911    7.3236 H   0  0  0  0  0  0  0  0  0  0  0  0
  1  2  1  0
  2  3  1  0
  3  4  1  0
  4  5  1  0
  5  6  2  0
  6  7  1  0
  7  8  1  0
  8  9  2  0
  9 10  1  0
 10 11  1  0
 11 12  1  0
  2 13  1  0
 13 14  2  0
 14 15  1  0
 15 16  2  0
 16 17  1  0
 17 18  1  0
 17 19  1  0
 17 20  1  0
 16 21  1  0
 21 22  2  0
  9  5  1  0
 22 13  1  0
 12  8  1  0
  1 23  1  0
  1 24  1  0
  1 25  1  0
  2 26  1  0
  3 27  1  0
  4 28  1  0
  4 29  1  0
  7 30  1  0
 10 31  1  0
 10 32  1  0
 11 33  1  0
 11 34  1  0
 12 35  1  0
 12 36  1  0
 14 37  1  0
 15 38  1  0
 22 39  1  0
M  END
>  <Energy>  (106) 
1018.1924313476834

>  <compound_id>  (106) 
46158

>  <target_id>  (106) 
1

>  <reference_id>  (106) 
99

>  <inspiration_ids>  (106) 
[93, 99]

>  <energy_score>  (106) 
858.1798097364649

>  <distance_score>  (106) 
3.361822302345104

>  <path>  (106) 
/opt/xchem-fragalysis-2/maxwin/BulkDock/SCRATCH/511023/C46158-P99/C46158-P99.minimised.mol

>  <scratch_subdir>  (106) 
/opt/xchem-fragalysis-2/maxwin/BulkDock/SCRATCH/511023/C46158-P99

>  <fragmenstein_runtime>  (106) 
4.185485124588013

>  <fragmenstein_outcome>  (106) 
too moved

>  <fragmenstein_mode>  (106) 
expansion

>  <fragmenstein_error>  (106) 


$$$$
C46159-P93
     RDKit          3D

 42 44  0  0  0  0  0  0  0  0999 V2000
    4.4666    2.8188   11.8710 C   0  0  0  0  0  0  0  0  0  0  0  0
    4.3194    1.2413   12.2388 C   0  0  0  0  0  0  0  0  0  0  0  0
    5.6262   -0.2900   12.5439 N   0  0  0  0  0  0  0  0  0  0  0  0
    7.2303   -0.7364   12.6664 C   0  0  0  0  0  0  0  0  0  0  0  0
    8.6175   -0.0265   13.5000 C   0  0  0  0  0  0  0  0  0  0  0  0
    9.5766    0.5811   12.7281 N   0  0  0  0  0  0  0  0  0  0  0  0
   10.6826    0.6452   13.4682 N   0  0  0  0  0  0  0  0  0  0  0  0
   10.3628    0.6430   14.7671 C   0  0  0  0  0  0  0  0  0  0  0  0
    9.0575    0.1914   14.8665 C   0  0  0  0  0  0  0  0  0  0  0  0
    8.4114    0.3853   16.1788 C   0  0  0  0  0  0  0  0  0  0  0  0
    8.7280    1.8156   16.6757 C   0  0  0  0  0  0  0  0  0  0  0  0
   10.2107    2.2725   16.5329 C   0  0  0  0  0  0  0  0  0  0  0  0
   11.1572    1.2960   15.8101 C   0  0  0  0  0  0  0  0  0  0  0  0
    3.1959    0.6463   11.2337 C   0  0  0  0  0  0  0  0  0  0  0  0
    2.2946   -0.6995   11.5404 C   0  0  0  0  0  0  0  0  0  0  0  0
    1.2290   -1.3126   10.6696 C   0  0  0  0  0  0  0  0  0  0  0  0
    0.4653   -0.6358    9.9772 C   0  0  0  0  0  0  0  0  0  0  0  0
   -1.4778   -0.7518    9.1744 C   0  0  0  0  0  0  0  0  0  0  0  0
   -2.1789   -1.9213    8.8231 F   0  0  0  0  0  0  0  0  0  0  0  0
   -1.7268   -0.2834    7.8625 F   0  0  0  0  0  0  0  0  0  0  0  0
   -2.4754    0.0960    9.6250 F   0  0  0  0  0  0  0  0  0  0  0  0
    1.6437    0.5158    9.4409 N   0  0  0  0  0  0  0  0  0  0  0  0
    2.8091    1.2032   10.0559 C   0  0  0  0  0  0  0  0  0  0  0  0
    3.4565    3.2516   11.8355 H   0  0  0  0  0  0  0  0  0  0  0  0
    4.9813    3.4211   12.6132 H   0  0  0  0  0  0  0  0  0  0  0  0
    4.8943    3.0087   10.8788 H   0  0  0  0  0  0  0  0  0  0  0  0
    3.6424    1.3466   13.1017 H   0  0  0  0  0  0  0  0  0  0  0  0
    5.6008   -0.3888   11.5128 H   0  0  0  0  0  0  0  0  0  0  0  0
    7.1391   -1.7032   13.1812 H   0  0  0  0  0  0  0  0  0  0  0  0
    7.4914   -0.9548   11.6397 H   0  0  0  0  0  0  0  0  0  0  0  0
   11.5598    0.8949   13.0209 H   0  0  0  0  0  0  0  0  0  0  0  0
    8.8500   -0.3064   16.8697 H   0  0  0  0  0  0  0  0  0  0  0  0
    7.3433    0.1911   16.2132 H   0  0  0  0  0  0  0  0  0  0  0  0
    8.1131    2.5225   16.1019 H   0  0  0  0  0  0  0  0  0  0  0  0
    8.3884    1.9384   17.7057 H   0  0  0  0  0  0  0  0  0  0  0  0
   10.6271    2.5534   17.5031 H   0  0  0  0  0  0  0  0  0  0  0  0
   10.1974    3.2119   15.9610 H   0  0  0  0  0  0  0  0  0  0  0  0
   12.0099    1.8487   15.3999 H   0  0  0  0  0  0  0  0  0  0  0  0
   11.5664    0.5236   16.4605 H   0  0  0  0  0  0  0  0  0  0  0  0
    2.9263   -1.7880   11.4625 H   0  0  0  0  0  0  0  0  0  0  0  0
    1.6170   -2.0836   10.0476 H   0  0  0  0  0  0  0  0  0  0  0  0
    3.2246    2.0319    9.5065 H   0  0  0  0  0  0  0  0  0  0  0  0
  1  2  1  0
  2  3  1  0
  3  4  1  0
  4  5  1  0
  5  6  2  0
  6  7  1  0
  7  8  1  0
  8  9  2  0
  9 10  1  0
 10 11  1  0
 11 12  1  0
 12 13  1  0
  2 14  1  0
 14 15  2  0
 15 16  1  0
 16 17  2  0
 17 18  1  0
 18 19  1  0
 18 20  1  0
 18 21  1  0
 17 22  1  0
 22 23  2  0
  9  5  1  0
 23 14  1  0
 13  8  1  0
  1 24  1  0
  1 25  1  0
  1 26  1  0
  2 27  1  0
  3 28  1  0
  4 29  1  0
  4 30  1  0
  7 31  1  0
 10 32  1  0
 10 33  1  0
 11 34  1  0
 11 35  1  0
 12 36  1  0
 12 37  1  0
 13 38  1  0
 13 39  1  0
 15 40  1  0
 16 41  1  0
 23 42  1  0
M  END
>  <Energy>  (107) 
658.93387067405888

>  <compound_id>  (107) 
46159

>  <target_id>  (107) 
1

>  <reference_id>  (107) 
93

>  <inspiration_ids>  (107) 
[93, 99]

>  <energy_score>  (107) 
503.8745367282705

>  <distance_score>  (107) 
7.264153393221673

>  <path>  (107) 
/opt/xchem-fragalysis-2/maxwin/BulkDock/SCRATCH/511023/C46159-P93/C46159-P93.minimised.mol

>  <scratch_subdir>  (107) 
/opt/xchem-fragalysis-2/maxwin/BulkDock/SCRATCH/511023/C46159-P93

>  <fragmenstein_runtime>  (107) 
7.006940603256226

>  <fragmenstein_outcome>  (107) 
too moved

>  <fragmenstein_mode>  (107) 
expansion

>  <fragmenstein_error>  (107) 


$$$$
C46159-P99
     RDKit          3D

 42 44  0  0  0  0  0  0  0  0999 V2000
    6.9136   -0.6067   11.1617 C   0  0  0  0  0  0  0  0  0  0  0  0
    5.5764   -0.4471   11.8366 C   0  0  0  0  0  0  0  0  0  0  0  0
    6.2651   -1.0678   13.4435 N   0  0  0  0  0  0  0  0  0  0  0  0
    7.7769   -1.3236   13.8090 C   0  0  0  0  0  0  0  0  0  0  0  0
    8.8684   -0.7352   14.8691 C   0  0  0  0  0  0  0  0  0  0  0  0
    8.7346    0.4666   15.4616 N   0  0  0  0  0  0  0  0  0  0  0  0
   10.0110    0.9001   15.5993 N   0  0  0  0  0  0  0  0  0  0  0  0
   10.9372   -0.0312   15.2361 C   0  0  0  0  0  0  0  0  0  0  0  0
   10.2400   -1.1898   14.9798 C   0  0  0  0  0  0  0  0  0  0  0  0
   10.9721   -2.4371   14.5920 C   0  0  0  0  0  0  0  0  0  0  0  0
   12.4609   -2.3631   14.9746 C   0  0  0  0  0  0  0  0  0  0  0  0
   13.0642   -1.0659   14.4228 C   0  0  0  0  0  0  0  0  0  0  0  0
   12.4067    0.1710   15.0573 C   0  0  0  0  0  0  0  0  0  0  0  0
    4.0462    0.5574   10.8725 C   0  0  0  0  0  0  0  0  0  0  0  0
    3.6972    1.5908    9.6195 C   0  0  0  0  0  0  0  0  0  0  0  0
    2.0329    1.3746    8.8136 C   0  0  0  0  0  0  0  0  0  0  0  0
    1.0705   -0.1143    9.0528 C   0  0  0  0  0  0  0  0  0  0  0  0
   -1.0212   -0.8205    8.6586 C   0  0  0  0  0  0  0  0  0  0  0  0
   -1.9756   -1.6833    9.1199 F   0  0  0  0  0  0  0  0  0  0  0  0
   -1.3459   -1.3714    7.1615 F   0  0  0  0  0  0  0  0  0  0  0  0
   -2.1181    0.2381    8.3213 F   0  0  0  0  0  0  0  0  0  0  0  0
    2.1490    0.4698    9.8835 N   0  0  0  0  0  0  0  0  0  0  0  0
    2.7934    0.5854   11.1917 C   0  0  0  0  0  0  0  0  0  0  0  0
    7.6480    0.0045   11.6502 H   0  0  0  0  0  0  0  0  0  0  0  0
    7.2178   -1.6322   11.2345 H   0  0  0  0  0  0  0  0  0  0  0  0
    6.8457   -0.3295   10.1235 H   0  0  0  0  0  0  0  0  0  0  0  0
    5.5202    0.2851   12.5652 H   0  0  0  0  0  0  0  0  0  0  0  0
    5.9933   -2.0529   13.3694 H   0  0  0  0  0  0  0  0  0  0  0  0
    7.4453   -1.9234   14.6557 H   0  0  0  0  0  0  0  0  0  0  0  0
    7.9282   -0.3218   13.4367 H   0  0  0  0  0  0  0  0  0  0  0  0
   10.1609    1.8587   15.9024 H   0  0  0  0  0  0  0  0  0  0  0  0
   10.9397   -2.5737   13.5107 H   0  0  0  0  0  0  0  0  0  0  0  0
   10.5203   -3.3107   15.0599 H   0  0  0  0  0  0  0  0  0  0  0  0
   12.5774   -2.3977   16.0651 H   0  0  0  0  0  0  0  0  0  0  0  0
   12.9899   -3.2283   14.5607 H   0  0  0  0  0  0  0  0  0  0  0  0
   14.1445   -1.0424   14.6055 H   0  0  0  0  0  0  0  0  0  0  0  0
   12.9264   -1.0361   13.3340 H   0  0  0  0  0  0  0  0  0  0  0  0
   12.9025    0.3291   16.0090 H   0  0  0  0  0  0  0  0  0  0  0  0
   12.5994    1.0531   14.4368 H   0  0  0  0  0  0  0  0  0  0  0  0
    4.4302    2.1694    9.0706 H   0  0  0  0  0  0  0  0  0  0  0  0
    1.8716    2.1107    8.0272 H   0  0  0  0  0  0  0  0  0  0  0  0
    2.2014    0.3915   12.0602 H   0  0  0  0  0  0  0  0  0  0  0  0
  1  2  1  0
  2  3  1  0
  3  4  1  0
  4  5  1  0
  5  6  2  0
  6  7  1  0
  7  8  1  0
  8  9  2  0
  9 10  1  0
 10 11  1  0
 11 12  1  0
 12 13  1  0
  2 14  1  0
 14 15  2  0
 15 16  1  0
 16 17  2  0
 17 18  1  0
 18 19  1  0
 18 20  1  0
 18 21  1  0
 17 22  1  0
 22 23  2  0
  9  5  1  0
 23 14  1  0
 13  8  1  0
  1 24  1  0
  1 25  1  0
  1 26  1  0
  2 27  1  0
  3 28  1  0
  4 29  1  0
  4 30  1  0
  7 31  1  0
 10 32  1  0
 10 33  1  0
 11 34  1  0
 11 35  1  0
 12 36  1  0
 12 37  1  0
 13 38  1  0
 13 39  1  0
 15 40  1  0
 16 41  1  0
 23 42  1  0
M  END
>  <Energy>  (108) 
1167.3625585861614

>  <compound_id>  (108) 
46159

>  <target_id>  (108) 
1

>  <reference_id>  (108) 
99

>  <inspiration_ids>  (108) 
[93, 99]

>  <energy_score>  (108) 
1012.3032246403826

>  <distance_score>  (108) 
6.591186999946423

>  <path>  (108) 
/opt/xchem-fragalysis-2/maxwin/BulkDock/SCRATCH/511023/C46159-P99/C46159-P99.minimised.mol

>  <scratch_subdir>  (108) 
/opt/xchem-fragalysis-2/maxwin/BulkDock/SCRATCH/511023/C46159-P99

>  <fragmenstein_runtime>  (108) 
6.744417667388916

>  <fragmenstein_outcome>  (108) 
too moved

>  <fragmenstein_mode>  (108) 
expansion

>  <fragmenstein_error>  (108) 


$$$$
C46172-P93
     RDKit          3D

 40 42  0  0  0  0  0  0  0  0999 V2000
   -4.0472   -1.1402    8.2404 C   0  0  0  0  0  0  0  0  0  0  0  0
   -3.0080   -1.9331    8.0903 C   0  0  0  0  0  0  0  0  0  0  0  0
   -1.4362   -1.5185    8.6403 C   0  0  0  0  0  0  0  0  0  0  0  0
   -0.0621   -1.0667    9.9981 C   0  0  0  0  0  0  0  0  0  0  0  0
    1.9113   -0.9882   10.8628 C   0  0  0  0  0  0  0  0  0  0  0  0
    4.1692   -0.7950   11.3586 C   0  0  0  0  0  0  0  0  0  0  0  0
    6.0364   -0.5600   10.7868 N   0  0  0  0  0  0  0  0  0  0  0  0
    7.6384   -0.5156   11.7237 C   0  0  0  0  0  0  0  0  0  0  0  0
    8.8596    0.2169   13.0465 C   0  0  0  0  0  0  0  0  0  0  0  0
   10.1978    0.9045   12.8931 C   0  0  0  0  0  0  0  0  0  0  0  0
   10.7087    1.1453   14.1392 C   0  0  0  0  0  0  0  0  0  0  0  0
    9.7991    0.6407   14.9911 N   0  0  0  0  0  0  0  0  0  0  0  0
    8.7087    0.1260   14.4125 N   0  0  0  0  0  0  0  0  0  0  0  0
    5.7505   -1.6861   12.3463 C   0  0  0  0  0  0  0  0  0  0  0  0
    5.4295   -2.9307   12.7905 C   0  0  0  0  0  0  0  0  0  0  0  0
    5.7501   -3.0712   14.4421 C   0  0  0  0  0  0  0  0  0  0  0  0
    6.9794   -2.7619   14.9075 C   0  0  0  0  0  0  0  0  0  0  0  0
    7.6046   -2.1695   13.9923 C   0  0  0  0  0  0  0  0  0  0  0  0
    6.5990   -1.4436   13.4044 C   0  0  0  0  0  0  0  0  0  0  0  0
   -1.7683   -0.4202    9.4132 C   0  0  0  0  0  0  0  0  0  0  0  0
   -3.3816   -0.1687    8.8051 C   0  0  0  0  0  0  0  0  0  0  0  0
   -5.0393   -1.2007    7.8559 H   0  0  0  0  0  0  0  0  0  0  0  0
   -3.1029   -2.8571    7.5322 H   0  0  0  0  0  0  0  0  0  0  0  0
   -1.2200   -1.4164    7.5106 H   0  0  0  0  0  0  0  0  0  0  0  0
    1.5780   -0.7574   11.9047 H   0  0  0  0  0  0  0  0  0  0  0  0
    1.9360   -0.2209   10.0346 H   0  0  0  0  0  0  0  0  0  0  0  0
    4.1143    0.3210   11.2552 H   0  0  0  0  0  0  0  0  0  0  0  0
    5.9685    0.3813   10.3961 H   0  0  0  0  0  0  0  0  0  0  0  0
    7.0735   -0.0664   12.4480 H   0  0  0  0  0  0  0  0  0  0  0  0
    7.7266   -1.5702   11.6448 H   0  0  0  0  0  0  0  0  0  0  0  0
   10.7515    1.1705   11.9989 H   0  0  0  0  0  0  0  0  0  0  0  0
   11.6315    1.5989   14.4728 H   0  0  0  0  0  0  0  0  0  0  0  0
    9.8412    0.6497   16.0015 H   0  0  0  0  0  0  0  0  0  0  0  0
    4.5067   -3.3482   12.3216 H   0  0  0  0  0  0  0  0  0  0  0  0
    5.0281   -3.4618   15.1367 H   0  0  0  0  0  0  0  0  0  0  0  0
    7.5793   -3.0539   15.7054 H   0  0  0  0  0  0  0  0  0  0  0  0
    8.6016   -1.9376   14.3116 H   0  0  0  0  0  0  0  0  0  0  0  0
    5.8932   -1.1265   14.1604 H   0  0  0  0  0  0  0  0  0  0  0  0
   -1.8681    0.6641    9.1224 H   0  0  0  0  0  0  0  0  0  0  0  0
   -3.7835    0.8307    8.8744 H   0  0  0  0  0  0  0  0  0  0  0  0
  1  2  2  0
  2  3  1  0
  3  4  2  0
  4  5  1  0
  5  6  1  0
  6  7  1  0
  7  8  1  0
  8  9  1  0
  9 10  1  0
 10 11  2  0
 11 12  1  0
 12 13  1  0
  6 14  1  0
 14 15  2  0
 15 16  1  0
 16 17  2  0
 17 18  1  0
 18 19  2  0
  4 20  1  0
 20 21  2  0
 21  1  1  0
 13  9  2  0
 19 14  1  0
  1 22  1  0
  2 23  1  0
  3 24  1  0
  5 25  1  0
  5 26  1  0
  6 27  1  0
  7 28  1  0
  8 29  1  0
  8 30  1  0
 10 31  1  0
 11 32  1  0
 12 33  1  0
 15 34  1  0
 16 35  1  0
 17 36  1  0
 18 37  1  0
 19 38  1  0
 20 39  1  0
 21 40  1  0
M  END
>  <Energy>  (109) 
1883.447937435222

>  <compound_id>  (109) 
46172

>  <target_id>  (109) 
1

>  <reference_id>  (109) 
93

>  <inspiration_ids>  (109) 
[93, 99]

>  <energy_score>  (109) 
1768.3106553294003

>  <distance_score>  (109) 
6.671981971856745

>  <path>  (109) 
/opt/xchem-fragalysis-2/maxwin/BulkDock/SCRATCH/511023/C46172-P93/C46172-P93.minimised.mol

>  <scratch_subdir>  (109) 
/opt/xchem-fragalysis-2/maxwin/BulkDock/SCRATCH/511023/C46172-P93

>  <fragmenstein_runtime>  (109) 
10.43124794960022

>  <fragmenstein_outcome>  (109) 
too moved

>  <fragmenstein_mode>  (109) 
expansion

>  <fragmenstein_error>  (109) 


$$$$
C46172-P99
     RDKit          3D

 40 42  0  0  0  0  0  0  0  0999 V2000
   -1.4570   -1.4776    7.0509 C   0  0  0  0  0  0  0  0  0  0  0  0
    0.2332   -2.0014    6.5679 C   0  0  0  0  0  0  0  0  0  0  0  0
    1.3150   -2.1753    8.1698 C   0  0  0  0  0  0  0  0  0  0  0  0
    1.7152   -1.3077    9.8605 C   0  0  0  0  0  0  0  0  0  0  0  0
    3.5007   -1.3112   11.1794 C   0  0  0  0  0  0  0  0  0  0  0  0
    5.5190   -0.9585   12.1327 C   0  0  0  0  0  0  0  0  0  0  0  0
    7.0714   -0.6376   11.6608 N   0  0  0  0  0  0  0  0  0  0  0  0
    7.9617    0.3176   12.8654 C   0  0  0  0  0  0  0  0  0  0  0  0
    9.3851    1.1431   13.3263 C   0  0  0  0  0  0  0  0  0  0  0  0
   10.6167    1.4680   12.6925 C   0  0  0  0  0  0  0  0  0  0  0  0
   11.3291    2.2402   13.5791 C   0  0  0  0  0  0  0  0  0  0  0  0
   10.5337    2.3732   14.6667 N   0  0  0  0  0  0  0  0  0  0  0  0
    9.3537    1.7641   14.5304 N   0  0  0  0  0  0  0  0  0  0  0  0
    6.3035   -1.3509   13.9457 C   0  0  0  0  0  0  0  0  0  0  0  0
    7.1354   -2.3542   14.1587 C   0  0  0  0  0  0  0  0  0  0  0  0
    8.5409   -2.4238   14.7652 C   0  0  0  0  0  0  0  0  0  0  0  0
    9.2242   -1.4114   15.3710 C   0  0  0  0  0  0  0  0  0  0  0  0
    8.3341   -0.5289   15.8213 C   0  0  0  0  0  0  0  0  0  0  0  0
    7.0126   -0.5806   15.2435 C   0  0  0  0  0  0  0  0  0  0  0  0
    0.1563   -1.1833    9.7778 C   0  0  0  0  0  0  0  0  0  0  0  0
   -1.4209   -1.2728    8.6305 C   0  0  0  0  0  0  0  0  0  0  0  0
   -2.3080   -1.3240    6.4087 H   0  0  0  0  0  0  0  0  0  0  0  0
   -0.2136   -1.3059    5.8617 H   0  0  0  0  0  0  0  0  0  0  0  0
    1.9817   -3.0794    8.1301 H   0  0  0  0  0  0  0  0  0  0  0  0
    2.7507   -0.3625   11.4798 H   0  0  0  0  0  0  0  0  0  0  0  0
    4.0470   -0.2362   10.8213 H   0  0  0  0  0  0  0  0  0  0  0  0
    5.4463    0.0309   12.4750 H   0  0  0  0  0  0  0  0  0  0  0  0
    7.5114   -1.5398   11.7666 H   0  0  0  0  0  0  0  0  0  0  0  0
    8.2613   -0.4808   13.4542 H   0  0  0  0  0  0  0  0  0  0  0  0
    8.2829    0.7172   11.9797 H   0  0  0  0  0  0  0  0  0  0  0  0
   10.9795    1.2177   11.7184 H   0  0  0  0  0  0  0  0  0  0  0  0
   12.3056    2.6984   13.5213 H   0  0  0  0  0  0  0  0  0  0  0  0
   10.7139    2.8846   15.5264 H   0  0  0  0  0  0  0  0  0  0  0  0
    6.4595   -3.0083   14.7221 H   0  0  0  0  0  0  0  0  0  0  0  0
    9.0131   -3.3943   14.8973 H   0  0  0  0  0  0  0  0  0  0  0  0
   10.2540   -1.4669   15.6880 H   0  0  0  0  0  0  0  0  0  0  0  0
    8.5943    0.2591   16.5219 H   0  0  0  0  0  0  0  0  0  0  0  0
    6.5704    0.2794   15.7897 H   0  0  0  0  0  0  0  0  0  0  0  0
   -0.1908   -1.1696   10.8979 H   0  0  0  0  0  0  0  0  0  0  0  0
   -2.4266   -1.0647    8.9927 H   0  0  0  0  0  0  0  0  0  0  0  0
  1  2  2  0
  2  3  1  0
  3  4  2  0
  4  5  1  0
  5  6  1  0
  6  7  1  0
  7  8  1  0
  8  9  1  0
  9 10  1  0
 10 11  2  0
 11 12  1  0
 12 13  1  0
  6 14  1  0
 14 15  2  0
 15 16  1  0
 16 17  2  0
 17 18  1  0
 18 19  2  0
  4 20  1  0
 20 21  2  0
 21  1  1  0
 13  9  2  0
 19 14  1  0
  1 22  1  0
  2 23  1  0
  3 24  1  0
  5 25  1  0
  5 26  1  0
  6 27  1  0
  7 28  1  0
  8 29  1  0
  8 30  1  0
 10 31  1  0
 11 32  1  0
 12 33  1  0
 15 34  1  0
 16 35  1  0
 17 36  1  0
 18 37  1  0
 19 38  1  0
 20 39  1  0
 21 40  1  0
M  END
>  <Energy>  (110) 
1408.9092120276475

>  <compound_id>  (110) 
46172

>  <target_id>  (110) 
1

>  <reference_id>  (110) 
99

>  <inspiration_ids>  (110) 
[93, 99]

>  <energy_score>  (110) 
1293.7719299218056

>  <distance_score>  (110) 
6.350336406254342

>  <path>  (110) 
/opt/xchem-fragalysis-2/maxwin/BulkDock/SCRATCH/511023/C46172-P99/C46172-P99.minimised.mol

>  <scratch_subdir>  (110) 
/opt/xchem-fragalysis-2/maxwin/BulkDock/SCRATCH/511023/C46172-P99

>  <fragmenstein_runtime>  (110) 
9.464644432067871

>  <fragmenstein_outcome>  (110) 
too moved

>  <fragmenstein_mode>  (110) 
expansion

>  <fragmenstein_error>  (110) 


$$$$
C46277-P93
     RDKit          3D

 52 54  0  0  0  0  0  0  0  0999 V2000
   -2.1251   -1.7344    8.3966 C   0  0  0  0  0  0  0  0  0  0  0  0
   -1.2562   -0.8558    9.4881 C   0  0  0  0  0  0  0  0  0  0  0  0
    0.6639   -1.5458    9.8763 N   0  0  0  0  0  0  0  0  0  0  0  0
    1.7948   -1.2483   11.2564 C   0  0  0  0  0  0  0  0  0  0  0  0
    1.6868   -0.4764   12.2363 O   0  0  0  0  0  0  0  0  0  0  0  0
    3.5075   -2.4642   11.4807 C   0  0  0  0  0  0  0  0  0  0  0  0
    5.3159   -2.7662   12.5078 C   0  0  0  0  0  0  0  0  0  0  0  0
    6.4631   -2.4792   14.0956 C   0  0  0  0  0  0  0  0  0  0  0  0
    6.8985   -1.5115   15.0255 C   0  0  0  0  0  0  0  0  0  0  0  0
    8.1503   -0.6682   15.5704 C   0  0  0  0  0  0  0  0  0  0  0  0
    9.3567   -1.2230   15.3775 C   0  0  0  0  0  0  0  0  0  0  0  0
   10.6540   -0.9174   15.6617 N   0  0  0  0  0  0  0  0  0  0  0  0
   11.4430   -1.9874   15.3407 C   0  0  0  0  0  0  0  0  0  0  0  0
   10.6246   -2.9201   14.7344 C   0  0  0  0  0  0  0  0  0  0  0  0
    9.2518   -2.4509   14.7772 C   0  0  0  0  0  0  0  0  0  0  0  0
    7.8346   -2.7161   14.0836 C   0  0  0  0  0  0  0  0  0  0  0  0
   -2.4844    0.5456    8.8211 C   0  0  0  0  0  0  0  0  0  0  0  0
   -4.0302    0.1265    8.6585 C   0  0  0  0  0  0  0  0  0  0  0  0
   -2.4854    2.3022    8.6689 N   0  0  0  0  0  0  0  0  0  0  0  0
   -3.5482    3.2412    8.2822 C   0  0  0  0  0  0  0  0  0  0  0  0
   -4.6763    3.0356    7.8893 O   0  0  0  0  0  0  0  0  0  0  0  0
   -3.1446    4.7196    8.3420 C   0  0  0  0  0  0  0  0  0  0  0  0
   -3.5736    5.5192    7.0776 C   0  0  0  0  0  0  0  0  0  0  0  0
   -2.3001    6.3479    7.2285 C   0  0  0  0  0  0  0  0  0  0  0  0
   -1.7106    5.2220    8.0889 C   0  0  0  0  0  0  0  0  0  0  0  0
   -1.9817   -1.3693    7.4144 H   0  0  0  0  0  0  0  0  0  0  0  0
   -3.1438   -1.6373    8.7075 H   0  0  0  0  0  0  0  0  0  0  0  0
   -2.4537   -2.7518    8.3204 H   0  0  0  0  0  0  0  0  0  0  0  0
   -0.0469   -0.5414    9.8562 H   0  0  0  0  0  0  0  0  0  0  0  0
    1.0864   -2.1681    9.2071 H   0  0  0  0  0  0  0  0  0  0  0  0
    3.0765   -3.2609   12.1517 H   0  0  0  0  0  0  0  0  0  0  0  0
    3.4131   -3.1561   10.6281 H   0  0  0  0  0  0  0  0  0  0  0  0
    5.3783   -3.7418   12.0464 H   0  0  0  0  0  0  0  0  0  0  0  0
    6.0868   -1.9950   12.1756 H   0  0  0  0  0  0  0  0  0  0  0  0
    6.5052   -1.4044   16.0148 H   0  0  0  0  0  0  0  0  0  0  0  0
    7.9769    0.1581   16.2581 H   0  0  0  0  0  0  0  0  0  0  0  0
   10.9904   -0.0418   16.0389 H   0  0  0  0  0  0  0  0  0  0  0  0
   12.5144   -1.9684   15.4891 H   0  0  0  0  0  0  0  0  0  0  0  0
   10.9849   -3.8200   14.2643 H   0  0  0  0  0  0  0  0  0  0  0  0
    8.0226   -2.7450   13.0521 H   0  0  0  0  0  0  0  0  0  0  0  0
   -2.0789    0.3618    7.8709 H   0  0  0  0  0  0  0  0  0  0  0  0
   -4.4169   -0.3796    9.5378 H   0  0  0  0  0  0  0  0  0  0  0  0
   -4.1994   -0.5054    7.7727 H   0  0  0  0  0  0  0  0  0  0  0  0
   -4.7172    0.9206    8.4222 H   0  0  0  0  0  0  0  0  0  0  0  0
   -1.6461    2.8220    8.8663 H   0  0  0  0  0  0  0  0  0  0  0  0
   -3.5598    5.1778    9.2535 H   0  0  0  0  0  0  0  0  0  0  0  0
   -3.6032    4.9340    6.1512 H   0  0  0  0  0  0  0  0  0  0  0  0
   -4.5093    6.0779    7.1696 H   0  0  0  0  0  0  0  0  0  0  0  0
   -1.7635    6.5650    6.3012 H   0  0  0  0  0  0  0  0  0  0  0  0
   -2.4507    7.2840    7.7784 H   0  0  0  0  0  0  0  0  0  0  0  0
   -1.1785    5.5726    8.9792 H   0  0  0  0  0  0  0  0  0  0  0  0
   -1.0384    4.5583    7.5447 H   0  0  0  0  0  0  0  0  0  0  0  0
  1  2  1  0
  2  3  1  0
  3  4  1  0
  4  5  2  0
  4  6  1  0
  6  7  1  0
  7  8  1  0
  8  9  2  0
  9 10  1  0
 10 11  2  0
 11 12  1  0
 12 13  1  0
 13 14  2  0
 14 15  1  0
 15 16  2  0
  2 17  1  0
 17 18  1  0
 17 19  1  0
 19 20  1  0
 20 21  2  0
 20 22  1  0
 22 23  1  0
 23 24  1  0
 24 25  1  0
 16  8  1  0
 25 22  1  0
 15 11  1  0
  1 26  1  0
  1 27  1  0
  1 28  1  0
  2 29  1  0
  3 30  1  0
  6 31  1  0
  6 32  1  0
  7 33  1  0
  7 34  1  0
  9 35  1  0
 10 36  1  0
 12 37  1  0
 13 38  1  0
 14 39  1  0
 16 40  1  0
 17 41  1  0
 18 42  1  0
 18 43  1  0
 18 44  1  0
 19 45  1  0
 22 46  1  0
 23 47  1  0
 23 48  1  0
 24 49  1  0
 24 50  1  0
 25 51  1  0
 25 52  1  0
M  END
>  <Energy>  (111) 
987.38663182663311

>  <compound_id>  (111) 
46277

>  <target_id>  (111) 
1

>  <reference_id>  (111) 
93

>  <inspiration_ids>  (111) 
[93, 99]

>  <energy_score>  (111) 
949.010740062633

>  <distance_score>  (111) 
7.028865316954952

>  <path>  (111) 
/opt/xchem-fragalysis-2/maxwin/BulkDock/SCRATCH/511023/C46277-P93/C46277-P93.minimised.mol

>  <scratch_subdir>  (111) 
/opt/xchem-fragalysis-2/maxwin/BulkDock/SCRATCH/511023/C46277-P93

>  <fragmenstein_runtime>  (111) 
18.08862042427063

>  <fragmenstein_outcome>  (111) 
too moved

>  <fragmenstein_mode>  (111) 
expansion

>  <fragmenstein_error>  (111) 


$$$$
C46277-P99
     RDKit          3D

 52 54  0  0  0  0  0  0  0  0999 V2000
   -2.9830    0.0597    8.6946 C   0  0  0  0  0  0  0  0  0  0  0  0
   -1.8475   -1.0606    8.5188 C   0  0  0  0  0  0  0  0  0  0  0  0
   -0.0827   -1.2569    9.4134 N   0  0  0  0  0  0  0  0  0  0  0  0
    0.2896   -1.2843   10.9062 C   0  0  0  0  0  0  0  0  0  0  0  0
   -0.3969   -1.1038   11.8807 O   0  0  0  0  0  0  0  0  0  0  0  0
    2.1487   -1.5193   11.1851 C   0  0  0  0  0  0  0  0  0  0  0  0
    3.9041   -2.5039   11.7422 C   0  0  0  0  0  0  0  0  0  0  0  0
    5.7620   -1.9322   12.4005 C   0  0  0  0  0  0  0  0  0  0  0  0
    6.0939   -2.2124   13.8756 C   0  0  0  0  0  0  0  0  0  0  0  0
    7.2664   -1.9786   14.6357 C   0  0  0  0  0  0  0  0  0  0  0  0
    8.0092   -0.8971   14.4043 C   0  0  0  0  0  0  0  0  0  0  0  0
    9.0873   -0.4209   15.1049 N   0  0  0  0  0  0  0  0  0  0  0  0
    9.5807    0.6850   14.5038 C   0  0  0  0  0  0  0  0  0  0  0  0
    8.8806    0.7857   13.3175 C   0  0  0  0  0  0  0  0  0  0  0  0
    7.7718   -0.2396   13.2175 C   0  0  0  0  0  0  0  0  0  0  0  0
    6.7272   -0.8794   12.1558 C   0  0  0  0  0  0  0  0  0  0  0  0
   -2.4556   -1.6210    7.0476 C   0  0  0  0  0  0  0  0  0  0  0  0
   -3.4641   -2.7857    7.3327 C   0  0  0  0  0  0  0  0  0  0  0  0
   -3.3786   -0.8077    6.1929 N   0  0  0  0  0  0  0  0  0  0  0  0
   -4.1515   -1.1661    5.0291 C   0  0  0  0  0  0  0  0  0  0  0  0
   -4.1906   -2.1884    4.3982 O   0  0  0  0  0  0  0  0  0  0  0  0
   -5.1504   -0.0357    4.6403 C   0  0  0  0  0  0  0  0  0  0  0  0
   -6.4507   -0.5103    3.9066 C   0  0  0  0  0  0  0  0  0  0  0  0
   -7.2311    0.5336    4.7147 C   0  0  0  0  0  0  0  0  0  0  0  0
   -6.1149    0.4598    5.7666 C   0  0  0  0  0  0  0  0  0  0  0  0
   -2.7668    0.9852    8.1670 H   0  0  0  0  0  0  0  0  0  0  0  0
   -3.3215    0.2626    9.6837 H   0  0  0  0  0  0  0  0  0  0  0  0
   -3.9561   -0.2840    8.3229 H   0  0  0  0  0  0  0  0  0  0  0  0
   -2.3176   -1.8475    9.0594 H   0  0  0  0  0  0  0  0  0  0  0  0
    0.7594   -1.3695    8.8555 H   0  0  0  0  0  0  0  0  0  0  0  0
    1.5797   -1.2329   12.1445 H   0  0  0  0  0  0  0  0  0  0  0  0
    2.4909   -0.4258   11.2765 H   0  0  0  0  0  0  0  0  0  0  0  0
    4.0804   -3.3952   11.1341 H   0  0  0  0  0  0  0  0  0  0  0  0
    3.5285   -3.0837   12.6187 H   0  0  0  0  0  0  0  0  0  0  0  0
    5.3331   -2.6434   14.5247 H   0  0  0  0  0  0  0  0  0  0  0  0
    7.5920   -2.6240   15.4077 H   0  0  0  0  0  0  0  0  0  0  0  0
    9.4887   -0.8687   15.9112 H   0  0  0  0  0  0  0  0  0  0  0  0
   10.4366    1.2239   14.8849 H   0  0  0  0  0  0  0  0  0  0  0  0
    9.1945    1.4892   12.5729 H   0  0  0  0  0  0  0  0  0  0  0  0
    6.8384   -0.4874   11.1575 H   0  0  0  0  0  0  0  0  0  0  0  0
   -1.6058   -1.7230    6.4103 H   0  0  0  0  0  0  0  0  0  0  0  0
   -3.7820   -3.3399    6.4481 H   0  0  0  0  0  0  0  0  0  0  0  0
   -4.3969   -2.3628    7.7261 H   0  0  0  0  0  0  0  0  0  0  0  0
   -3.1492   -3.5366    8.0358 H   0  0  0  0  0  0  0  0  0  0  0  0
   -3.5388    0.1690    6.4065 H   0  0  0  0  0  0  0  0  0  0  0  0
   -4.6629    0.7829    4.0953 H   0  0  0  0  0  0  0  0  0  0  0  0
   -6.4581   -0.3656    2.8229 H   0  0  0  0  0  0  0  0  0  0  0  0
   -6.7522   -1.5414    4.1268 H   0  0  0  0  0  0  0  0  0  0  0  0
   -7.3034    1.5085    4.2193 H   0  0  0  0  0  0  0  0  0  0  0  0
   -8.2250    0.2305    5.0525 H   0  0  0  0  0  0  0  0  0  0  0  0
   -6.3045   -0.2783    6.5554 H   0  0  0  0  0  0  0  0  0  0  0  0
   -5.8539    1.4126    6.2340 H   0  0  0  0  0  0  0  0  0  0  0  0
  1  2  1  0
  2  3  1  0
  3  4  1  0
  4  5  2  0
  4  6  1  0
  6  7  1  0
  7  8  1  0
  8  9  2  0
  9 10  1  0
 10 11  2  0
 11 12  1  0
 12 13  1  0
 13 14  2  0
 14 15  1  0
 15 16  2  0
  2 17  1  0
 17 18  1  0
 17 19  1  0
 19 20  1  0
 20 21  2  0
 20 22  1  0
 22 23  1  0
 23 24  1  0
 24 25  1  0
 16  8  1  0
 25 22  1  0
 15 11  1  0
  1 26  1  0
  1 27  1  0
  1 28  1  0
  2 29  1  0
  3 30  1  0
  6 31  1  0
  6 32  1  0
  7 33  1  0
  7 34  1  0
  9 35  1  0
 10 36  1  0
 12 37  1  0
 13 38  1  0
 14 39  1  0
 16 40  1  0
 17 41  1  0
 18 42  1  0
 18 43  1  0
 18 44  1  0
 19 45  1  0
 22 46  1  0
 23 47  1  0
 23 48  1  0
 24 49  1  0
 24 50  1  0
 25 51  1  0
 25 52  1  0
M  END
>  <Energy>  (112) 
528.93417981953178

>  <compound_id>  (112) 
46277

>  <target_id>  (112) 
1

>  <reference_id>  (112) 
99

>  <inspiration_ids>  (112) 
[93, 99]

>  <energy_score>  (112) 
490.5582880555233

>  <distance_score>  (112) 
5.976500478001008

>  <path>  (112) 
/opt/xchem-fragalysis-2/maxwin/BulkDock/SCRATCH/511023/C46277-P99/C46277-P99.minimised.mol

>  <scratch_subdir>  (112) 
/opt/xchem-fragalysis-2/maxwin/BulkDock/SCRATCH/511023/C46277-P99

>  <fragmenstein_runtime>  (112) 
27.568901538848877

>  <fragmenstein_outcome>  (112) 
too moved

>  <fragmenstein_mode>  (112) 
expansion

>  <fragmenstein_error>  (112) 


$$$$
C46278-P93
     RDKit          3D

 50 52  0  0  0  0  0  0  0  0999 V2000
   -0.2250   -0.5469   11.7849 O   0  0  0  0  0  0  0  0  0  0  0  0
   -0.0538   -1.0880   10.6295 C   0  0  0  0  0  0  0  0  0  0  0  0
    1.7884   -1.8737   10.5209 C   0  0  0  0  0  0  0  0  0  0  0  0
    3.4827   -2.7969   11.4715 C   0  0  0  0  0  0  0  0  0  0  0  0
    5.3230   -2.7717   12.4527 C   0  0  0  0  0  0  0  0  0  0  0  0
    5.7742   -2.8679   13.9837 C   0  0  0  0  0  0  0  0  0  0  0  0
    6.9766   -2.5800   14.7081 C   0  0  0  0  0  0  0  0  0  0  0  0
    7.8803   -1.6600   14.4179 C   0  0  0  0  0  0  0  0  0  0  0  0
    8.9683   -1.2511   15.1433 N   0  0  0  0  0  0  0  0  0  0  0  0
    9.4517   -0.1063   14.6418 C   0  0  0  0  0  0  0  0  0  0  0  0
    8.7696    0.0194   13.4448 C   0  0  0  0  0  0  0  0  0  0  0  0
    7.6777   -1.0184   13.2274 C   0  0  0  0  0  0  0  0  0  0  0  0
    6.5196   -1.5709   12.2776 C   0  0  0  0  0  0  0  0  0  0  0  0
   -1.3875   -0.9590    9.2065 N   0  0  0  0  0  0  0  0  0  0  0  0
   -2.7821   -0.1452    9.1012 C   0  0  0  0  0  0  0  0  0  0  0  0
   -4.3505   -0.4618    8.6466 C   0  0  0  0  0  0  0  0  0  0  0  0
   -5.2696    0.6781    7.9198 C   0  0  0  0  0  0  0  0  0  0  0  0
   -4.8933    2.0416    7.7371 O   0  0  0  0  0  0  0  0  0  0  0  0
   -4.8669   -1.6123    7.8923 N   0  0  0  0  0  0  0  0  0  0  0  0
   -6.2357   -1.9883    7.5449 C   0  0  0  0  0  0  0  0  0  0  0  0
   -7.2883   -1.4920    7.8585 O   0  0  0  0  0  0  0  0  0  0  0  0
   -6.3703   -3.1663    6.5339 C   0  0  0  0  0  0  0  0  0  0  0  0
   -7.2408   -2.8705    5.2585 C   0  0  0  0  0  0  0  0  0  0  0  0
   -8.4549   -3.4601    5.9888 C   0  0  0  0  0  0  0  0  0  0  0  0
   -7.4547   -4.2519    6.8410 C   0  0  0  0  0  0  0  0  0  0  0  0
    1.5194   -2.0849    9.4966 H   0  0  0  0  0  0  0  0  0  0  0  0
    1.9581   -0.9434   11.0690 H   0  0  0  0  0  0  0  0  0  0  0  0
    3.8129   -1.8005   11.5291 H   0  0  0  0  0  0  0  0  0  0  0  0
    3.0424   -3.4221   12.2583 H   0  0  0  0  0  0  0  0  0  0  0  0
    5.0539   -3.1891   14.7329 H   0  0  0  0  0  0  0  0  0  0  0  0
    7.2710   -3.1524   15.5293 H   0  0  0  0  0  0  0  0  0  0  0  0
    9.3579   -1.7148   15.9373 H   0  0  0  0  0  0  0  0  0  0  0  0
   10.2830    0.4381   15.0675 H   0  0  0  0  0  0  0  0  0  0  0  0
    9.1367    0.7892   12.8132 H   0  0  0  0  0  0  0  0  0  0  0  0
    6.5174   -0.9470   11.3856 H   0  0  0  0  0  0  0  0  0  0  0  0
   -1.0193   -1.3736    8.3778 H   0  0  0  0  0  0  0  0  0  0  0  0
   -2.6584    0.9244    9.1115 H   0  0  0  0  0  0  0  0  0  0  0  0
   -2.5762   -0.2135    8.0263 H   0  0  0  0  0  0  0  0  0  0  0  0
   -4.8295   -0.5706    9.6056 H   0  0  0  0  0  0  0  0  0  0  0  0
   -6.2411    0.6884    8.4315 H   0  0  0  0  0  0  0  0  0  0  0  0
   -5.4798    0.3585    6.8901 H   0  0  0  0  0  0  0  0  0  0  0  0
   -5.7350    2.5252    7.5937 H   0  0  0  0  0  0  0  0  0  0  0  0
   -4.2224   -2.2040    7.3828 H   0  0  0  0  0  0  0  0  0  0  0  0
   -5.3986   -3.6055    6.2910 H   0  0  0  0  0  0  0  0  0  0  0  0
   -7.3347   -1.8211    4.9663 H   0  0  0  0  0  0  0  0  0  0  0  0
   -6.9640   -3.4617    4.3776 H   0  0  0  0  0  0  0  0  0  0  0  0
   -9.1369   -4.0549    5.3765 H   0  0  0  0  0  0  0  0  0  0  0  0
   -9.0480   -2.7296    6.5488 H   0  0  0  0  0  0  0  0  0  0  0  0
   -7.7517   -4.3901    7.8815 H   0  0  0  0  0  0  0  0  0  0  0  0
   -7.2234   -5.2254    6.4030 H   0  0  0  0  0  0  0  0  0  0  0  0
  1  2  2  0
  2  3  1  0
  3  4  1  0
  4  5  1  0
  5  6  2  0
  6  7  1  0
  7  8  2  0
  8  9  1  0
  9 10  1  0
 10 11  2  0
 11 12  1  0
 12 13  2  0
  2 14  1  0
 14 15  1  0
 15 16  1  0
 16 17  1  0
 17 18  1  0
 16 19  1  0
 19 20  1  0
 20 21  2  0
 20 22  1  0
 22 23  1  0
 23 24  1  0
 24 25  1  0
 13  5  1  0
 25 22  1  0
 12  8  1  0
  3 26  1  0
  3 27  1  0
  4 28  1  0
  4 29  1  0
  6 30  1  0
  7 31  1  0
  9 32  1  0
 10 33  1  0
 11 34  1  0
 13 35  1  0
 14 36  1  0
 15 37  1  0
 15 38  1  0
 16 39  1  0
 17 40  1  0
 17 41  1  0
 18 42  1  0
 19 43  1  0
 22 44  1  0
 23 45  1  0
 23 46  1  0
 24 47  1  0
 24 48  1  0
 25 49  1  0
 25 50  1  0
M  END
>  <Energy>  (113) 
738.24224376828431

>  <compound_id>  (113) 
46278

>  <target_id>  (113) 
1

>  <reference_id>  (113) 
93

>  <inspiration_ids>  (113) 
[93, 99]

>  <energy_score>  (113) 
686.3298692912139

>  <distance_score>  (113) 
5.253237115847597

>  <path>  (113) 
/opt/xchem-fragalysis-2/maxwin/BulkDock/SCRATCH/511023/C46278-P93/C46278-P93.minimised.mol

>  <scratch_subdir>  (113) 
/opt/xchem-fragalysis-2/maxwin/BulkDock/SCRATCH/511023/C46278-P93

>  <fragmenstein_runtime>  (113) 
18.2265625

>  <fragmenstein_outcome>  (113) 
too moved

>  <fragmenstein_mode>  (113) 
expansion

>  <fragmenstein_error>  (113) 


$$$$
C46278-P99
     RDKit          3D

 50 52  0  0  0  0  0  0  0  0999 V2000
   -1.6328   -5.1160   13.3654 O   0  0  0  0  0  0  0  0  0  0  0  0
   -0.8972   -5.2391   12.3862 C   0  0  0  0  0  0  0  0  0  0  0  0
    1.2539   -4.9014   12.6636 C   0  0  0  0  0  0  0  0  0  0  0  0
    2.9241   -3.6755   13.3472 C   0  0  0  0  0  0  0  0  0  0  0  0
    4.6216   -2.7385   14.2132 C   0  0  0  0  0  0  0  0  0  0  0  0
    5.1007   -2.1189   15.3116 C   0  0  0  0  0  0  0  0  0  0  0  0
    6.5925   -1.0149   15.6739 C   0  0  0  0  0  0  0  0  0  0  0  0
    7.7121   -0.7635   14.9955 C   0  0  0  0  0  0  0  0  0  0  0  0
    8.8919   -0.1448   15.2530 N   0  0  0  0  0  0  0  0  0  0  0  0
    9.8017   -1.1517   15.1226 C   0  0  0  0  0  0  0  0  0  0  0  0
    9.0191   -2.2009   14.6443 C   0  0  0  0  0  0  0  0  0  0  0  0
    7.7083   -1.7171   14.0391 C   0  0  0  0  0  0  0  0  0  0  0  0
    6.1501   -2.3961   13.7907 C   0  0  0  0  0  0  0  0  0  0  0  0
   -1.4137   -5.5004   10.5838 N   0  0  0  0  0  0  0  0  0  0  0  0
   -3.2142   -5.4702    9.6516 C   0  0  0  0  0  0  0  0  0  0  0  0
   -3.2757   -3.9282    8.3233 C   0  0  0  0  0  0  0  0  0  0  0  0
   -3.0039   -2.1523    8.1946 C   0  0  0  0  0  0  0  0  0  0  0  0
   -2.8640   -1.6294    6.8533 O   0  0  0  0  0  0  0  0  0  0  0  0
   -4.0719   -3.8002    7.1207 N   0  0  0  0  0  0  0  0  0  0  0  0
   -5.2888   -3.0433    6.8542 C   0  0  0  0  0  0  0  0  0  0  0  0
   -5.9880   -2.3963    7.5909 O   0  0  0  0  0  0  0  0  0  0  0  0
   -5.6272   -3.0300    5.3307 C   0  0  0  0  0  0  0  0  0  0  0  0
   -6.4052   -1.8003    4.7824 C   0  0  0  0  0  0  0  0  0  0  0  0
   -7.7028   -2.6124    4.9276 C   0  0  0  0  0  0  0  0  0  0  0  0
   -6.8388   -3.8807    4.8993 C   0  0  0  0  0  0  0  0  0  0  0  0
    1.7219   -5.5134   11.8441 H   0  0  0  0  0  0  0  0  0  0  0  0
    1.0314   -5.0113   13.8294 H   0  0  0  0  0  0  0  0  0  0  0  0
    3.0924   -4.4694   14.0947 H   0  0  0  0  0  0  0  0  0  0  0  0
    3.4745   -3.8461   12.4105 H   0  0  0  0  0  0  0  0  0  0  0  0
    4.4950   -2.1710   16.2549 H   0  0  0  0  0  0  0  0  0  0  0  0
    6.4876   -0.5076   16.6578 H   0  0  0  0  0  0  0  0  0  0  0  0
    9.0122    0.6685   15.8435 H   0  0  0  0  0  0  0  0  0  0  0  0
   10.7971   -1.1092   15.5422 H   0  0  0  0  0  0  0  0  0  0  0  0
    9.3362   -3.2193   14.8120 H   0  0  0  0  0  0  0  0  0  0  0  0
    6.5969   -3.0280   14.5838 H   0  0  0  0  0  0  0  0  0  0  0  0
   -0.5903   -5.6585    9.9966 H   0  0  0  0  0  0  0  0  0  0  0  0
   -3.2127   -6.1249    8.8271 H   0  0  0  0  0  0  0  0  0  0  0  0
   -4.1927   -5.5775   10.0997 H   0  0  0  0  0  0  0  0  0  0  0  0
   -3.2852   -3.4183    9.2306 H   0  0  0  0  0  0  0  0  0  0  0  0
   -2.1396   -1.7618    8.7003 H   0  0  0  0  0  0  0  0  0  0  0  0
   -3.8803   -1.6306    8.6074 H   0  0  0  0  0  0  0  0  0  0  0  0
   -3.1390   -0.6960    6.9080 H   0  0  0  0  0  0  0  0  0  0  0  0
   -3.7071   -4.1452    6.2589 H   0  0  0  0  0  0  0  0  0  0  0  0
   -4.7402   -3.2197    4.7132 H   0  0  0  0  0  0  0  0  0  0  0  0
   -6.3544   -0.8842    5.3771 H   0  0  0  0  0  0  0  0  0  0  0  0
   -6.1535   -1.5546    3.7437 H   0  0  0  0  0  0  0  0  0  0  0  0
   -8.4208   -2.5102    4.1100 H   0  0  0  0  0  0  0  0  0  0  0  0
   -8.2222   -2.4525    5.8790 H   0  0  0  0  0  0  0  0  0  0  0  0
   -7.1349   -4.6514    5.6144 H   0  0  0  0  0  0  0  0  0  0  0  0
   -6.7199   -4.3196    3.9030 H   0  0  0  0  0  0  0  0  0  0  0  0
  1  2  2  0
  2  3  1  0
  3  4  1  0
  4  5  1  0
  5  6  2  0
  6  7  1  0
  7  8  2  0
  8  9  1  0
  9 10  1  0
 10 11  2  0
 11 12  1  0
 12 13  2  0
  2 14  1  0
 14 15  1  0
 15 16  1  0
 16 17  1  0
 17 18  1  0
 16 19  1  0
 19 20  1  0
 20 21  2  0
 20 22  1  0
 22 23  1  0
 23 24  1  0
 24 25  1  0
 13  5  1  0
 25 22  1  0
 12  8  1  0
  3 26  1  0
  3 27  1  0
  4 28  1  0
  4 29  1  0
  6 30  1  0
  7 31  1  0
  9 32  1  0
 10 33  1  0
 11 34  1  0
 13 35  1  0
 14 36  1  0
 15 37  1  0
 15 38  1  0
 16 39  1  0
 17 40  1  0
 17 41  1  0
 18 42  1  0
 19 43  1  0
 22 44  1  0
 23 45  1  0
 23 46  1  0
 24 47  1  0
 24 48  1  0
 25 49  1  0
 25 50  1  0
M  END
>  <Energy>  (114) 
1120.8688245268247

>  <compound_id>  (114) 
46278

>  <target_id>  (114) 
1

>  <reference_id>  (114) 
99

>  <inspiration_ids>  (114) 
[93, 99]

>  <energy_score>  (114) 
1068.9564500497668

>  <distance_score>  (114) 
5.794790732085368

>  <path>  (114) 
/opt/xchem-fragalysis-2/maxwin/BulkDock/SCRATCH/511023/C46278-P99/C46278-P99.minimised.mol

>  <scratch_subdir>  (114) 
/opt/xchem-fragalysis-2/maxwin/BulkDock/SCRATCH/511023/C46278-P99

>  <fragmenstein_runtime>  (114) 
18.380446910858154

>  <fragmenstein_outcome>  (114) 
too moved

>  <fragmenstein_mode>  (114) 
expansion

>  <fragmenstein_error>  (114) 


$$$$
C46279-P93
     RDKit          3D

 40 43  0  0  0  0  0  0  0  0999 V2000
   10.2821    1.5765   14.6480 O   0  0  0  0  0  0  0  0  0  0  0  0
   10.3117    0.1928   14.2893 C   0  0  0  0  0  0  0  0  0  0  0  0
    9.1117   -0.5496   14.7840 C   0  0  0  0  0  0  0  0  0  0  0  0
    8.5624   -0.4494   16.0176 C   0  0  0  0  0  0  0  0  0  0  0  0
    7.3571   -1.1100   15.9432 N   0  0  0  0  0  0  0  0  0  0  0  0
    7.1762   -1.9446   14.8314 C   0  0  0  0  0  0  0  0  0  0  0  0
    5.9941   -2.7181   14.2211 C   0  0  0  0  0  0  0  0  0  0  0  0
    5.4646   -2.8023   12.6811 C   0  0  0  0  0  0  0  0  0  0  0  0
    3.5900   -3.0737   12.1840 C   0  0  0  0  0  0  0  0  0  0  0  0
    2.2253   -2.8222   13.3664 C   0  0  0  0  0  0  0  0  0  0  0  0
    1.3413   -1.2342   12.9163 C   0  0  0  0  0  0  0  0  0  0  0  0
    1.4490   -1.2463   11.0196 N   0  0  0  0  0  0  0  0  0  0  0  0
   -0.1472   -1.0785    9.9822 C   0  0  0  0  0  0  0  0  0  0  0  0
   -1.9617   -0.2849    9.3200 C   0  0  0  0  0  0  0  0  0  0  0  0
   -3.4469   -0.8382    8.7872 C   0  0  0  0  0  0  0  0  0  0  0  0
   -2.9393   -2.0793    8.3126 C   0  0  0  0  0  0  0  0  0  0  0  0
   -1.5125   -1.5355    8.3813 C   0  0  0  0  0  0  0  0  0  0  0  0
    2.7581   -2.6045   10.9168 N   0  0  0  0  0  0  0  0  0  0  0  0
    6.3714   -1.6733   12.2583 C   0  0  0  0  0  0  0  0  0  0  0  0
    7.5099   -1.0798   12.8025 C   0  0  0  0  0  0  0  0  0  0  0  0
    8.0638   -1.2661   14.0637 C   0  0  0  0  0  0  0  0  0  0  0  0
   10.2375    1.6070   15.6181 H   0  0  0  0  0  0  0  0  0  0  0  0
   11.2214   -0.2489   14.7098 H   0  0  0  0  0  0  0  0  0  0  0  0
   10.4091    0.1780   13.2049 H   0  0  0  0  0  0  0  0  0  0  0  0
    8.7830    0.1926   16.8599 H   0  0  0  0  0  0  0  0  0  0  0  0
    6.6428   -0.8649   16.6184 H   0  0  0  0  0  0  0  0  0  0  0  0
    5.2754   -3.0606   14.9539 H   0  0  0  0  0  0  0  0  0  0  0  0
    1.8315   -3.6950   13.8894 H   0  0  0  0  0  0  0  0  0  0  0  0
    1.6964   -0.2155   12.9525 H   0  0  0  0  0  0  0  0  0  0  0  0
    0.6060   -1.8339    9.4796 H   0  0  0  0  0  0  0  0  0  0  0  0
   -1.9260    0.6203    8.6747 H   0  0  0  0  0  0  0  0  0  0  0  0
   -2.5100    0.2361    9.9634 H   0  0  0  0  0  0  0  0  0  0  0  0
   -3.8215   -0.2149    7.9733 H   0  0  0  0  0  0  0  0  0  0  0  0
   -4.2789   -0.8608    9.4883 H   0  0  0  0  0  0  0  0  0  0  0  0
   -3.3853   -2.2854    7.3456 H   0  0  0  0  0  0  0  0  0  0  0  0
   -3.0512   -2.9894    8.8329 H   0  0  0  0  0  0  0  0  0  0  0  0
   -1.2229   -1.6813    7.3266 H   0  0  0  0  0  0  0  0  0  0  0  0
   -1.6834   -0.6725    7.6616 H   0  0  0  0  0  0  0  0  0  0  0  0
    6.1083   -0.9424   11.4827 H   0  0  0  0  0  0  0  0  0  0  0  0
    7.9453   -0.2941   12.2364 H   0  0  0  0  0  0  0  0  0  0  0  0
  1  2  1  0
  2  3  1  0
  3  4  2  0
  4  5  1  0
  5  6  1  0
  6  7  2  0
  7  8  1  0
  8  9  1  0
  9 10  1  0
 10 11  2  0
 11 12  1  0
 12 13  1  0
 13 14  1  0
 14 15  1  0
 15 16  1  0
 16 17  1  0
 12 18  1  0
  8 19  2  0
 19 20  1  0
 20 21  2  0
 21  3  1  0
 21  6  1  0
 18  9  2  0
 17 13  1  0
  1 22  1  0
  2 23  1  0
  2 24  1  0
  4 25  1  0
  5 26  1  0
  7 27  1  0
 10 28  1  0
 11 29  1  0
 13 30  1  0
 14 31  1  0
 14 32  1  0
 15 33  1  0
 15 34  1  0
 16 35  1  0
 16 36  1  0
 17 37  1  0
 17 38  1  0
 19 39  1  0
 20 40  1  0
M  END
>  <Energy>  (115) 
1184.586345331699

>  <compound_id>  (115) 
46279

>  <target_id>  (115) 
1

>  <reference_id>  (115) 
93

>  <inspiration_ids>  (115) 
[93, 99]

>  <energy_score>  (115) 
1121.717975677048

>  <distance_score>  (115) 
5.820114905221093

>  <path>  (115) 
/opt/xchem-fragalysis-2/maxwin/BulkDock/SCRATCH/511023/C46279-P93/C46279-P93.minimised.mol

>  <scratch_subdir>  (115) 
/opt/xchem-fragalysis-2/maxwin/BulkDock/SCRATCH/511023/C46279-P93

>  <fragmenstein_runtime>  (115) 
9.906687498092651

>  <fragmenstein_outcome>  (115) 
too moved

>  <fragmenstein_mode>  (115) 
expansion

>  <fragmenstein_error>  (115) 


$$$$
C46279-P99
     RDKit          3D

 40 43  0  0  0  0  0  0  0  0999 V2000
   10.8309    2.7053   14.7758 O   0  0  0  0  0  0  0  0  0  0  0  0
   11.5770    1.5391   14.4452 C   0  0  0  0  0  0  0  0  0  0  0  0
   10.8858    0.2867   14.8567 C   0  0  0  0  0  0  0  0  0  0  0  0
   11.4632   -0.8310   15.4266 C   0  0  0  0  0  0  0  0  0  0  0  0
   10.5189   -1.8224   15.4734 N   0  0  0  0  0  0  0  0  0  0  0  0
    9.2966   -1.3629   15.0077 C   0  0  0  0  0  0  0  0  0  0  0  0
    8.0388   -2.0277   14.7590 C   0  0  0  0  0  0  0  0  0  0  0  0
    7.1067   -1.6657   13.7458 C   0  0  0  0  0  0  0  0  0  0  0  0
    5.7565   -2.3796   13.3496 C   0  0  0  0  0  0  0  0  0  0  0  0
    4.7277   -2.6863   14.3159 C   0  0  0  0  0  0  0  0  0  0  0  0
    3.3039   -3.2806   13.3753 C   0  0  0  0  0  0  0  0  0  0  0  0
    3.0999   -2.6538   11.8530 N   0  0  0  0  0  0  0  0  0  0  0  0
    1.4775   -1.6436   11.1400 C   0  0  0  0  0  0  0  0  0  0  0  0
   -0.5810   -1.2521   11.1007 C   0  0  0  0  0  0  0  0  0  0  0  0
   -2.0004   -1.3477    9.4921 C   0  0  0  0  0  0  0  0  0  0  0  0
   -1.2640   -1.2161    8.4604 C   0  0  0  0  0  0  0  0  0  0  0  0
    0.6116   -1.3977    9.3870 C   0  0  0  0  0  0  0  0  0  0  0  0
    4.8835   -2.7110   11.9593 N   0  0  0  0  0  0  0  0  0  0  0  0
    7.5158   -0.5476   13.0825 C   0  0  0  0  0  0  0  0  0  0  0  0
    8.6062    0.3642   13.5998 C   0  0  0  0  0  0  0  0  0  0  0  0
    9.5458   -0.0942   14.5323 C   0  0  0  0  0  0  0  0  0  0  0  0
   10.5376    2.5986   15.6997 H   0  0  0  0  0  0  0  0  0  0  0  0
   12.5602    1.6190   14.9173 H   0  0  0  0  0  0  0  0  0  0  0  0
   11.7329    1.5384   13.3611 H   0  0  0  0  0  0  0  0  0  0  0  0
   12.4839   -1.0350   15.7244 H   0  0  0  0  0  0  0  0  0  0  0  0
   10.7342   -2.7938   15.6624 H   0  0  0  0  0  0  0  0  0  0  0  0
    7.9364   -2.9557   15.2646 H   0  0  0  0  0  0  0  0  0  0  0  0
    4.8651   -2.8815   15.3720 H   0  0  0  0  0  0  0  0  0  0  0  0
    2.4210   -3.7892   13.7425 H   0  0  0  0  0  0  0  0  0  0  0  0
    1.7602   -0.7402   11.6863 H   0  0  0  0  0  0  0  0  0  0  0  0
   -1.2540   -1.4131   11.9220 H   0  0  0  0  0  0  0  0  0  0  0  0
   -0.7387   -0.3549   11.6543 H   0  0  0  0  0  0  0  0  0  0  0  0
   -2.7490   -0.4633    9.3498 H   0  0  0  0  0  0  0  0  0  0  0  0
   -2.6268   -2.2228    9.1767 H   0  0  0  0  0  0  0  0  0  0  0  0
   -1.6695   -0.2744    8.0196 H   0  0  0  0  0  0  0  0  0  0  0  0
   -1.7173   -1.7261    7.5655 H   0  0  0  0  0  0  0  0  0  0  0  0
    1.0828   -2.0476    8.5375 H   0  0  0  0  0  0  0  0  0  0  0  0
    1.2433   -0.5289    9.1336 H   0  0  0  0  0  0  0  0  0  0  0  0
    7.0192   -0.3297   12.1422 H   0  0  0  0  0  0  0  0  0  0  0  0
    8.9363    1.1914   12.9846 H   0  0  0  0  0  0  0  0  0  0  0  0
  1  2  1  0
  2  3  1  0
  3  4  2  0
  4  5  1  0
  5  6  1  0
  6  7  2  0
  7  8  1  0
  8  9  1  0
  9 10  1  0
 10 11  2  0
 11 12  1  0
 12 13  1  0
 13 14  1  0
 14 15  1  0
 15 16  1  0
 16 17  1  0
 12 18  1  0
  8 19  2  0
 19 20  1  0
 20 21  2  0
 21  3  1  0
 21  6  1  0
 18  9  2  0
 17 13  1  0
  1 22  1  0
  2 23  1  0
  2 24  1  0
  4 25  1  0
  5 26  1  0
  7 27  1  0
 10 28  1  0
 11 29  1  0
 13 30  1  0
 14 31  1  0
 14 32  1  0
 15 33  1  0
 15 34  1  0
 16 35  1  0
 16 36  1  0
 17 37  1  0
 17 38  1  0
 19 39  1  0
 20 40  1  0
M  END
>  <Energy>  (116) 
1001.9016021145081

>  <compound_id>  (116) 
46279

>  <target_id>  (116) 
1

>  <reference_id>  (116) 
99

>  <inspiration_ids>  (116) 
[93, 99]

>  <energy_score>  (116) 
939.0332324598589

>  <distance_score>  (116) 
5.252399755726084

>  <path>  (116) 
/opt/xchem-fragalysis-2/maxwin/BulkDock/SCRATCH/511023/C46279-P99/C46279-P99.minimised.mol

>  <scratch_subdir>  (116) 
/opt/xchem-fragalysis-2/maxwin/BulkDock/SCRATCH/511023/C46279-P99

>  <fragmenstein_runtime>  (116) 
10.479774713516235

>  <fragmenstein_outcome>  (116) 
too moved

>  <fragmenstein_mode>  (116) 
expansion

>  <fragmenstein_error>  (116) 


$$$$
C46286-P93
     RDKit          3D

 44 46  0  0  0  0  0  0  0  0999 V2000
   10.3985    1.0344   12.8793 C   0  0  0  0  0  0  0  0  0  0  0  0
    9.0190    0.5754   12.6077 O   0  0  0  0  0  0  0  0  0  0  0  0
    8.2812   -0.2735   13.4055 C   0  0  0  0  0  0  0  0  0  0  0  0
    6.9192   -1.2005   12.9829 C   0  0  0  0  0  0  0  0  0  0  0  0
    5.2417   -1.0183   11.9504 C   0  0  0  0  0  0  0  0  0  0  0  0
    3.4918   -2.0572   11.4030 N   0  0  0  0  0  0  0  0  0  0  0  0
    3.4599   -3.5183   11.6696 C   0  0  0  0  0  0  0  0  0  0  0  0
    1.6605   -1.2880   10.6819 C   0  0  0  0  0  0  0  0  0  0  0  0
   -0.3250   -1.0349    9.9638 C   0  0  0  0  0  0  0  0  0  0  0  0
   -1.9606   -0.0107    9.1463 C   0  0  0  0  0  0  0  0  0  0  0  0
   -3.5077   -0.2361    9.0274 C   0  0  0  0  0  0  0  0  0  0  0  0
   -3.2842   -1.2916    8.1104 C   0  0  0  0  0  0  0  0  0  0  0  0
   -1.7630   -1.6287    8.5379 C   0  0  0  0  0  0  0  0  0  0  0  0
    6.8452   -2.1539   14.0181 C   0  0  0  0  0  0  0  0  0  0  0  0
    7.9289   -2.4625   14.8785 C   0  0  0  0  0  0  0  0  0  0  0  0
    9.0316   -1.6733   15.1282 C   0  0  0  0  0  0  0  0  0  0  0  0
   10.3255   -1.9002   15.5499 N   0  0  0  0  0  0  0  0  0  0  0  0
   10.8982   -0.6998   15.8656 C   0  0  0  0  0  0  0  0  0  0  0  0
   10.0010    0.2677   15.4621 C   0  0  0  0  0  0  0  0  0  0  0  0
    9.0073   -0.4040   14.6695 C   0  0  0  0  0  0  0  0  0  0  0  0
   10.3861    1.8844   13.5627 H   0  0  0  0  0  0  0  0  0  0  0  0
   11.0660    0.2147   13.1530 H   0  0  0  0  0  0  0  0  0  0  0  0
   10.8033    1.4468   11.9459 H   0  0  0  0  0  0  0  0  0  0  0  0
    5.6333   -2.0789   12.2918 H   0  0  0  0  0  0  0  0  0  0  0  0
    5.6755   -0.6413   11.0195 H   0  0  0  0  0  0  0  0  0  0  0  0
    2.9569   -3.7734   12.6068 H   0  0  0  0  0  0  0  0  0  0  0  0
    4.4537   -3.9435   11.7291 H   0  0  0  0  0  0  0  0  0  0  0  0
    2.9808   -4.0346   10.8427 H   0  0  0  0  0  0  0  0  0  0  0  0
    1.8759   -0.4349   10.0328 H   0  0  0  0  0  0  0  0  0  0  0  0
    1.5045   -0.8752   11.7015 H   0  0  0  0  0  0  0  0  0  0  0  0
   -0.8442   -1.2376   10.9399 H   0  0  0  0  0  0  0  0  0  0  0  0
   -2.1340    1.0457    9.1951 H   0  0  0  0  0  0  0  0  0  0  0  0
   -1.7821    0.2102    8.0814 H   0  0  0  0  0  0  0  0  0  0  0  0
   -4.1639   -0.4568    9.8563 H   0  0  0  0  0  0  0  0  0  0  0  0
   -4.0252    0.5941    8.5420 H   0  0  0  0  0  0  0  0  0  0  0  0
   -3.3579   -0.9210    7.0869 H   0  0  0  0  0  0  0  0  0  0  0  0
   -4.0008   -2.1066    8.1349 H   0  0  0  0  0  0  0  0  0  0  0  0
   -2.2630   -2.5505    8.7635 H   0  0  0  0  0  0  0  0  0  0  0  0
   -1.4056   -1.5501    7.5126 H   0  0  0  0  0  0  0  0  0  0  0  0
    5.9870   -2.7948   14.1431 H   0  0  0  0  0  0  0  0  0  0  0  0
    7.9131   -3.4011   15.3645 H   0  0  0  0  0  0  0  0  0  0  0  0
   10.7681   -2.8098   15.6226 H   0  0  0  0  0  0  0  0  0  0  0  0
   11.8885   -0.6395   16.2992 H   0  0  0  0  0  0  0  0  0  0  0  0
   10.2079    1.3283   15.5097 H   0  0  0  0  0  0  0  0  0  0  0  0
  1  2  1  0
  2  3  1  0
  3  4  2  0
  4  5  1  0
  5  6  1  0
  6  7  1  0
  6  8  1  0
  8  9  1  0
  9 10  1  0
 10 11  1  0
 11 12  1  0
 12 13  1  0
  4 14  1  0
 14 15  2  0
 15 16  1  0
 16 17  1  0
 17 18  1  0
 18 19  2  0
 19 20  1  0
 20  3  1  0
 13  9  1  0
 20 16  2  0
  1 21  1  0
  1 22  1  0
  1 23  1  0
  5 24  1  0
  5 25  1  0
  7 26  1  0
  7 27  1  0
  7 28  1  0
  8 29  1  0
  8 30  1  0
  9 31  1  0
 10 32  1  0
 10 33  1  0
 11 34  1  0
 11 35  1  0
 12 36  1  0
 12 37  1  0
 13 38  1  0
 13 39  1  0
 14 40  1  0
 15 41  1  0
 17 42  1  0
 18 43  1  0
 19 44  1  0
M  END
>  <Energy>  (117) 
1125.440832294046

>  <compound_id>  (117) 
46286

>  <target_id>  (117) 
1

>  <reference_id>  (117) 
93

>  <inspiration_ids>  (117) 
[93, 99]

>  <energy_score>  (117) 
1027.4800576856915

>  <distance_score>  (117) 
4.714842278618016

>  <path>  (117) 
/opt/xchem-fragalysis-2/maxwin/BulkDock/SCRATCH/511023/C46286-P93/C46286-P93.minimised.mol

>  <scratch_subdir>  (117) 
/opt/xchem-fragalysis-2/maxwin/BulkDock/SCRATCH/511023/C46286-P93

>  <fragmenstein_runtime>  (117) 
6.237128734588623

>  <fragmenstein_outcome>  (117) 
too moved

>  <fragmenstein_mode>  (117) 
expansion

>  <fragmenstein_error>  (117) 


$$$$
C46286-P99
     RDKit          3D

 44 46  0  0  0  0  0  0  0  0999 V2000
    9.6055    1.4175   12.7644 C   0  0  0  0  0  0  0  0  0  0  0  0
    8.3570    0.8557   12.1451 O   0  0  0  0  0  0  0  0  0  0  0  0
    7.3887   -0.0313   12.6269 C   0  0  0  0  0  0  0  0  0  0  0  0
    5.7525   -0.5007   12.0801 C   0  0  0  0  0  0  0  0  0  0  0  0
    3.9137   -0.2156   11.0981 C   0  0  0  0  0  0  0  0  0  0  0  0
    2.0303   -1.1550   11.0604 N   0  0  0  0  0  0  0  0  0  0  0  0
    1.1936   -0.6493   12.3581 C   0  0  0  0  0  0  0  0  0  0  0  0
    0.5461   -1.2270    9.6256 C   0  0  0  0  0  0  0  0  0  0  0  0
   -1.4445   -1.1965    8.7305 C   0  0  0  0  0  0  0  0  0  0  0  0
   -2.7872   -0.0099    8.6380 C   0  0  0  0  0  0  0  0  0  0  0  0
   -4.0338   -0.5807    7.9847 C   0  0  0  0  0  0  0  0  0  0  0  0
   -3.4781   -1.1426    6.7447 C   0  0  0  0  0  0  0  0  0  0  0  0
   -2.0975   -1.6156    7.1800 C   0  0  0  0  0  0  0  0  0  0  0  0
    6.0793   -1.6942   12.4812 C   0  0  0  0  0  0  0  0  0  0  0  0
    6.4064   -2.0153   13.9124 C   0  0  0  0  0  0  0  0  0  0  0  0
    7.6187   -1.6784   14.4036 C   0  0  0  0  0  0  0  0  0  0  0  0
    8.6528   -2.2667   15.0417 N   0  0  0  0  0  0  0  0  0  0  0  0
    9.5856   -1.3312   15.3991 C   0  0  0  0  0  0  0  0  0  0  0  0
    9.1130   -0.1539   14.8943 C   0  0  0  0  0  0  0  0  0  0  0  0
    8.0877   -0.5130   13.9375 C   0  0  0  0  0  0  0  0  0  0  0  0
    9.4122    2.0252   13.6473 H   0  0  0  0  0  0  0  0  0  0  0  0
   10.3935    0.6735   12.8996 H   0  0  0  0  0  0  0  0  0  0  0  0
   10.0262    2.1380   12.0498 H   0  0  0  0  0  0  0  0  0  0  0  0
    4.2245    0.3523   10.2020 H   0  0  0  0  0  0  0  0  0  0  0  0
    3.4300    0.8016   11.3576 H   0  0  0  0  0  0  0  0  0  0  0  0
    1.5333    0.3590   12.6235 H   0  0  0  0  0  0  0  0  0  0  0  0
    0.1280   -0.8037   12.1579 H   0  0  0  0  0  0  0  0  0  0  0  0
    1.2764   -1.1903   13.2870 H   0  0  0  0  0  0  0  0  0  0  0  0
    1.0186   -1.8031    8.8342 H   0  0  0  0  0  0  0  0  0  0  0  0
    1.1364   -0.4001    9.1543 H   0  0  0  0  0  0  0  0  0  0  0  0
   -2.1152   -1.9177    9.1600 H   0  0  0  0  0  0  0  0  0  0  0  0
   -2.5206    0.8668    8.0554 H   0  0  0  0  0  0  0  0  0  0  0  0
   -3.1992    0.2712    9.5834 H   0  0  0  0  0  0  0  0  0  0  0  0
   -4.4844   -1.3552    8.6072 H   0  0  0  0  0  0  0  0  0  0  0  0
   -4.7929    0.1844    7.7959 H   0  0  0  0  0  0  0  0  0  0  0  0
   -3.4209   -0.4377    5.9227 H   0  0  0  0  0  0  0  0  0  0  0  0
   -4.1031   -1.9612    6.3650 H   0  0  0  0  0  0  0  0  0  0  0  0
   -2.4315   -2.6475    7.2975 H   0  0  0  0  0  0  0  0  0  0  0  0
   -1.3897   -1.4640    6.3863 H   0  0  0  0  0  0  0  0  0  0  0  0
    6.9259   -1.7926   11.7327 H   0  0  0  0  0  0  0  0  0  0  0  0
    5.7081   -2.5692   14.5167 H   0  0  0  0  0  0  0  0  0  0  0  0
    8.7664   -3.2674   15.1470 H   0  0  0  0  0  0  0  0  0  0  0  0
   10.4917   -1.5767   15.9374 H   0  0  0  0  0  0  0  0  0  0  0  0
    9.6387    0.7702   15.0612 H   0  0  0  0  0  0  0  0  0  0  0  0
  1  2  1  0
  2  3  1  0
  3  4  2  0
  4  5  1  0
  5  6  1  0
  6  7  1  0
  6  8  1  0
  8  9  1  0
  9 10  1  0
 10 11  1  0
 11 12  1  0
 12 13  1  0
  4 14  1  0
 14 15  2  0
 15 16  1  0
 16 17  1  0
 17 18  1  0
 18 19  2  0
 19 20  1  0
 20  3  1  0
 13  9  1  0
 20 16  2  0
  1 21  1  0
  1 22  1  0
  1 23  1  0
  5 24  1  0
  5 25  1  0
  7 26  1  0
  7 27  1  0
  7 28  1  0
  8 29  1  0
  8 30  1  0
  9 31  1  0
 10 32  1  0
 10 33  1  0
 11 34  1  0
 11 35  1  0
 12 36  1  0
 12 37  1  0
 13 38  1  0
 13 39  1  0
 14 40  1  0
 15 41  1  0
 17 42  1  0
 18 43  1  0
 19 44  1  0
M  END
>  <Energy>  (118) 
984.69282990601073

>  <compound_id>  (118) 
46286

>  <target_id>  (118) 
1

>  <reference_id>  (118) 
99

>  <inspiration_ids>  (118) 
[93, 99]

>  <energy_score>  (118) 
886.732055297655

>  <distance_score>  (118) 
5.413472493600215

>  <path>  (118) 
/opt/xchem-fragalysis-2/maxwin/BulkDock/SCRATCH/511023/C46286-P99/C46286-P99.minimised.mol

>  <scratch_subdir>  (118) 
/opt/xchem-fragalysis-2/maxwin/BulkDock/SCRATCH/511023/C46286-P99

>  <fragmenstein_runtime>  (118) 
6.324587345123291

>  <fragmenstein_outcome>  (118) 
too moved

>  <fragmenstein_mode>  (118) 
expansion

>  <fragmenstein_error>  (118) 


$$$$
C46287-P93
     RDKit          3D

 51 54  0  0  0  0  0  0  0  0999 V2000
    2.6939   -3.6294    9.4436 C   0  0  0  0  0  0  0  0  0  0  0  0
    2.3022   -2.4850   10.4854 N   0  0  0  0  0  0  0  0  0  0  0  0
    3.7533   -2.9387   11.7812 C   0  0  0  0  0  0  0  0  0  0  0  0
    5.6223   -2.5710   12.5432 C   0  0  0  0  0  0  0  0  0  0  0  0
    5.9667   -2.7772   14.0058 C   0  0  0  0  0  0  0  0  0  0  0  0
    7.1475   -2.5125   14.7467 C   0  0  0  0  0  0  0  0  0  0  0  0
    8.0230   -1.5503   14.4783 C   0  0  0  0  0  0  0  0  0  0  0  0
    9.1336   -1.1625   15.1834 N   0  0  0  0  0  0  0  0  0  0  0  0
    9.6366   -0.0265   14.6735 C   0  0  0  0  0  0  0  0  0  0  0  0
    8.9503    0.1273   13.4841 C   0  0  0  0  0  0  0  0  0  0  0  0
    7.8272   -0.8846   13.2877 C   0  0  0  0  0  0  0  0  0  0  0  0
    6.6852   -1.4378   12.3023 C   0  0  0  0  0  0  0  0  0  0  0  0
    0.5790   -1.4121   10.0418 C   0  0  0  0  0  0  0  0  0  0  0  0
   -1.4515   -1.0103    9.1647 C   0  0  0  0  0  0  0  0  0  0  0  0
   -2.5891   -2.1234    8.4098 C   0  0  0  0  0  0  0  0  0  0  0  0
   -3.8532   -1.6574    7.8048 C   0  0  0  0  0  0  0  0  0  0  0  0
   -4.6058   -2.3844    7.1737 O   0  0  0  0  0  0  0  0  0  0  0  0
   -4.0062   -0.3585    8.0860 N   0  0  0  0  0  0  0  0  0  0  0  0
   -5.3579    0.2345    7.8704 C   0  0  0  0  0  0  0  0  0  0  0  0
   -6.5412   -0.4472    8.5851 C   0  0  0  0  0  0  0  0  0  0  0  0
   -7.8128    0.0204    7.8751 C   0  0  0  0  0  0  0  0  0  0  0  0
   -7.3452    0.6780    6.5864 C   0  0  0  0  0  0  0  0  0  0  0  0
   -5.9026    0.2181    6.4290 C   0  0  0  0  0  0  0  0  0  0  0  0
   -2.9283    0.0946    9.0615 C   0  0  0  0  0  0  0  0  0  0  0  0
    3.6036   -3.5051    8.9137 H   0  0  0  0  0  0  0  0  0  0  0  0
    2.7154   -4.4842   10.1027 H   0  0  0  0  0  0  0  0  0  0  0  0
    1.9862   -3.7667    8.6078 H   0  0  0  0  0  0  0  0  0  0  0  0
    3.1927   -3.3611   12.6404 H   0  0  0  0  0  0  0  0  0  0  0  0
    4.0345   -3.9240   11.3824 H   0  0  0  0  0  0  0  0  0  0  0  0
    5.2127   -3.1477   14.6955 H   0  0  0  0  0  0  0  0  0  0  0  0
    7.4232   -3.1188   15.5558 H   0  0  0  0  0  0  0  0  0  0  0  0
    9.5582   -1.6734   15.9320 H   0  0  0  0  0  0  0  0  0  0  0  0
   10.4928    0.4882   15.0872 H   0  0  0  0  0  0  0  0  0  0  0  0
    9.3240    0.8898   12.8378 H   0  0  0  0  0  0  0  0  0  0  0  0
    6.6829   -0.8954   11.3630 H   0  0  0  0  0  0  0  0  0  0  0  0
    1.2620   -0.6255    9.7081 H   0  0  0  0  0  0  0  0  0  0  0  0
    0.4596   -0.9741   11.0142 H   0  0  0  0  0  0  0  0  0  0  0  0
   -1.4581   -0.7568    8.0757 H   0  0  0  0  0  0  0  0  0  0  0  0
   -2.9309   -2.9671    8.9476 H   0  0  0  0  0  0  0  0  0  0  0  0
   -2.1632   -2.4332    7.5020 H   0  0  0  0  0  0  0  0  0  0  0  0
   -5.2939    1.2852    8.1289 H   0  0  0  0  0  0  0  0  0  0  0  0
   -6.6065   -0.2278    9.6465 H   0  0  0  0  0  0  0  0  0  0  0  0
   -6.4887   -1.5325    8.4899 H   0  0  0  0  0  0  0  0  0  0  0  0
   -8.4727   -0.8304    7.6729 H   0  0  0  0  0  0  0  0  0  0  0  0
   -8.3733    0.7335    8.4892 H   0  0  0  0  0  0  0  0  0  0  0  0
   -7.3829    1.7691    6.6876 H   0  0  0  0  0  0  0  0  0  0  0  0
   -7.9657    0.3997    5.7293 H   0  0  0  0  0  0  0  0  0  0  0  0
   -5.9385   -0.7905    6.0162 H   0  0  0  0  0  0  0  0  0  0  0  0
   -5.3410    0.8596    5.7459 H   0  0  0  0  0  0  0  0  0  0  0  0
   -3.6114    0.0506    9.8845 H   0  0  0  0  0  0  0  0  0  0  0  0
   -2.6506    1.1006    8.7863 H   0  0  0  0  0  0  0  0  0  0  0  0
  1  2  1  0
  2  3  1  0
  3  4  1  0
  4  5  2  0
  5  6  1  0
  6  7  2  0
  7  8  1  0
  8  9  1  0
  9 10  2  0
 10 11  1  0
 11 12  2  0
  2 13  1  0
 13 14  1  0
 14 15  1  0
 15 16  1  0
 16 17  2  0
 16 18  1  0
 18 19  1  0
 19 20  1  0
 20 21  1  0
 21 22  1  0
 22 23  1  0
 18 24  1  0
 12  4  1  0
 24 14  1  0
 11  7  1  0
 23 19  1  0
  1 25  1  0
  1 26  1  0
  1 27  1  0
  3 28  1  0
  3 29  1  0
  5 30  1  0
  6 31  1  0
  8 32  1  0
  9 33  1  0
 10 34  1  0
 12 35  1  0
 13 36  1  0
 13 37  1  0
 14 38  1  0
 15 39  1  0
 15 40  1  0
 19 41  1  0
 20 42  1  0
 20 43  1  0
 21 44  1  0
 21 45  1  0
 22 46  1  0
 22 47  1  0
 23 48  1  0
 23 49  1  0
 24 50  1  0
 24 51  1  0
M  END
>  <Energy>  (119) 
830.261529168062

>  <compound_id>  (119) 
46287

>  <target_id>  (119) 
1

>  <reference_id>  (119) 
93

>  <inspiration_ids>  (119) 
[93, 99]

>  <energy_score>  (119) 
776.4295378184721

>  <distance_score>  (119) 
5.445759719974843

>  <path>  (119) 
/opt/xchem-fragalysis-2/maxwin/BulkDock/SCRATCH/511023/C46287-P93/C46287-P93.minimised.mol

>  <scratch_subdir>  (119) 
/opt/xchem-fragalysis-2/maxwin/BulkDock/SCRATCH/511023/C46287-P93

>  <fragmenstein_runtime>  (119) 
15.177544593811035

>  <fragmenstein_outcome>  (119) 
too moved

>  <fragmenstein_mode>  (119) 
expansion

>  <fragmenstein_error>  (119) 


$$$$
C46287-P99
     RDKit          3D

 51 54  0  0  0  0  0  0  0  0999 V2000
    3.7266   -4.0727   11.2291 C   0  0  0  0  0  0  0  0  0  0  0  0
    3.3137   -2.3355   11.0819 N   0  0  0  0  0  0  0  0  0  0  0  0
    4.9740   -2.4810   12.0625 C   0  0  0  0  0  0  0  0  0  0  0  0
    6.3273   -1.5803   13.0665 C   0  0  0  0  0  0  0  0  0  0  0  0
    6.5845   -2.0528   14.3193 C   0  0  0  0  0  0  0  0  0  0  0  0
    7.7898   -1.8082   14.9910 C   0  0  0  0  0  0  0  0  0  0  0  0
    8.5977   -0.7276   14.7756 C   0  0  0  0  0  0  0  0  0  0  0  0
    9.7666   -0.3118   15.3535 N   0  0  0  0  0  0  0  0  0  0  0  0
   10.2358    0.7921   14.7011 C   0  0  0  0  0  0  0  0  0  0  0  0
    9.4136    0.9930   13.6108 C   0  0  0  0  0  0  0  0  0  0  0  0
    8.3420    0.0130   13.6402 C   0  0  0  0  0  0  0  0  0  0  0  0
    7.2597   -0.5945   12.6767 C   0  0  0  0  0  0  0  0  0  0  0  0
    1.4385   -1.5872   10.7581 C   0  0  0  0  0  0  0  0  0  0  0  0
   -0.2061   -1.1596    9.3756 C   0  0  0  0  0  0  0  0  0  0  0  0
   -1.5590   -1.4072    7.7598 C   0  0  0  0  0  0  0  0  0  0  0  0
   -2.8398   -2.2683    7.7217 C   0  0  0  0  0  0  0  0  0  0  0  0
   -3.2797   -3.1973    7.0959 O   0  0  0  0  0  0  0  0  0  0  0  0
   -3.4668   -1.5249    8.5911 N   0  0  0  0  0  0  0  0  0  0  0  0
   -4.8115   -0.9931    8.2367 C   0  0  0  0  0  0  0  0  0  0  0  0
   -5.7164   -1.8582    7.3120 C   0  0  0  0  0  0  0  0  0  0  0  0
   -6.9308   -0.9745    7.0625 C   0  0  0  0  0  0  0  0  0  0  0  0
   -6.3598    0.4410    7.0747 C   0  0  0  0  0  0  0  0  0  0  0  0
   -4.8723    0.2693    7.3963 C   0  0  0  0  0  0  0  0  0  0  0  0
   -2.2784   -0.7511    9.0334 C   0  0  0  0  0  0  0  0  0  0  0  0
    3.6446   -4.3330   10.2125 H   0  0  0  0  0  0  0  0  0  0  0  0
    3.1092   -4.5743   11.9980 H   0  0  0  0  0  0  0  0  0  0  0  0
    4.7188   -4.3525   11.4813 H   0  0  0  0  0  0  0  0  0  0  0  0
    4.2523   -2.8722   12.7985 H   0  0  0  0  0  0  0  0  0  0  0  0
    5.2048   -1.3027   11.9919 H   0  0  0  0  0  0  0  0  0  0  0  0
    5.8975   -2.7648   14.7321 H   0  0  0  0  0  0  0  0  0  0  0  0
    8.1120   -2.5894   15.6208 H   0  0  0  0  0  0  0  0  0  0  0  0
   10.2428   -0.7819   16.1069 H   0  0  0  0  0  0  0  0  0  0  0  0
   11.1477    1.2845   15.0095 H   0  0  0  0  0  0  0  0  0  0  0  0
    9.6203    1.7109   12.8337 H   0  0  0  0  0  0  0  0  0  0  0  0
    7.2547   -0.2824   11.6433 H   0  0  0  0  0  0  0  0  0  0  0  0
    2.0431   -0.7482   11.1673 H   0  0  0  0  0  0  0  0  0  0  0  0
    0.8511   -1.3836   11.6608 H   0  0  0  0  0  0  0  0  0  0  0  0
    0.2778   -2.0358    8.9487 H   0  0  0  0  0  0  0  0  0  0  0  0
   -1.1341   -1.6315    6.7263 H   0  0  0  0  0  0  0  0  0  0  0  0
   -1.8265   -0.4831    7.1556 H   0  0  0  0  0  0  0  0  0  0  0  0
   -5.3108   -0.7551    9.1702 H   0  0  0  0  0  0  0  0  0  0  0  0
   -5.9964   -2.8398    7.6697 H   0  0  0  0  0  0  0  0  0  0  0  0
   -5.2289   -2.0332    6.3426 H   0  0  0  0  0  0  0  0  0  0  0  0
   -7.4212   -1.2137    6.1141 H   0  0  0  0  0  0  0  0  0  0  0  0
   -7.6666   -1.0927    7.8658 H   0  0  0  0  0  0  0  0  0  0  0  0
   -6.8556    1.0394    7.8473 H   0  0  0  0  0  0  0  0  0  0  0  0
   -6.5008    0.9498    6.1160 H   0  0  0  0  0  0  0  0  0  0  0  0
   -4.3338    0.0833    6.4645 H   0  0  0  0  0  0  0  0  0  0  0  0
   -4.4543    1.1442    7.8910 H   0  0  0  0  0  0  0  0  0  0  0  0
   -2.3772    0.2277    8.4372 H   0  0  0  0  0  0  0  0  0  0  0  0
   -2.8102   -0.0456    9.7043 H   0  0  0  0  0  0  0  0  0  0  0  0
  1  2  1  0
  2  3  1  0
  3  4  1  0
  4  5  2  0
  5  6  1  0
  6  7  2  0
  7  8  1  0
  8  9  1  0
  9 10  2  0
 10 11  1  0
 11 12  2  0
  2 13  1  0
 13 14  1  0
 14 15  1  0
 15 16  1  0
 16 17  2  0
 16 18  1  0
 18 19  1  0
 19 20  1  0
 20 21  1  0
 21 22  1  0
 22 23  1  0
 18 24  1  0
 12  4  1  0
 24 14  1  0
 11  7  1  0
 23 19  1  0
  1 25  1  0
  1 26  1  0
  1 27  1  0
  3 28  1  0
  3 29  1  0
  5 30  1  0
  6 31  1  0
  8 32  1  0
  9 33  1  0
 10 34  1  0
 12 35  1  0
 13 36  1  0
 13 37  1  0
 14 38  1  0
 15 39  1  0
 15 40  1  0
 19 41  1  0
 20 42  1  0
 20 43  1  0
 21 44  1  0
 21 45  1  0
 22 46  1  0
 22 47  1  0
 23 48  1  0
 23 49  1  0
 24 50  1  0
 24 51  1  0
M  END
>  <Energy>  (120) 
1136.1959291899495

>  <compound_id>  (120) 
46287

>  <target_id>  (120) 
1

>  <reference_id>  (120) 
99

>  <inspiration_ids>  (120) 
[93, 99]

>  <energy_score>  (120) 
1082.3639378403716

>  <distance_score>  (120) 
5.251113193970563

>  <path>  (120) 
/opt/xchem-fragalysis-2/maxwin/BulkDock/SCRATCH/511023/C46287-P99/C46287-P99.minimised.mol

>  <scratch_subdir>  (120) 
/opt/xchem-fragalysis-2/maxwin/BulkDock/SCRATCH/511023/C46287-P99

>  <fragmenstein_runtime>  (120) 
12.788999795913696

>  <fragmenstein_outcome>  (120) 
too moved

>  <fragmenstein_mode>  (120) 
expansion

>  <fragmenstein_error>  (120) 


$$$$
C46292-P93
     RDKit          3D

 48 50  0  0  0  0  0  0  0  0999 V2000
   -2.0613   -1.8143    8.1938 C   0  0  0  0  0  0  0  0  0  0  0  0
   -1.1652   -0.9424    9.3284 C   0  0  0  0  0  0  0  0  0  0  0  0
   -2.6005    0.1661    8.9766 C   0  0  0  0  0  0  0  0  0  0  0  0
   -4.1681   -0.3759    9.0190 C   0  0  0  0  0  0  0  0  0  0  0  0
   -5.3303    0.2028    8.1668 C   0  0  0  0  0  0  0  0  0  0  0  0
   -6.7199   -0.2208    8.6838 C   0  0  0  0  0  0  0  0  0  0  0  0
   -7.6654    0.1618    7.5610 C   0  0  0  0  0  0  0  0  0  0  0  0
   -6.8802   -0.1417    6.2998 C   0  0  0  0  0  0  0  0  0  0  0  0
   -5.4398   -0.3453    6.7598 C   0  0  0  0  0  0  0  0  0  0  0  0
    0.6293   -1.2529   10.4345 N   0  0  0  0  0  0  0  0  0  0  0  0
    2.1618   -2.4936   10.2228 C   0  0  0  0  0  0  0  0  0  0  0  0
    2.3498   -3.3312    9.1966 O   0  0  0  0  0  0  0  0  0  0  0  0
    3.6388   -2.8316   11.6612 C   0  0  0  0  0  0  0  0  0  0  0  0
    5.4756   -2.8545   12.6068 C   0  0  0  0  0  0  0  0  0  0  0  0
    5.7095   -2.8106   14.1279 C   0  0  0  0  0  0  0  0  0  0  0  0
    6.4424   -1.6649   14.4075 N   0  0  0  0  0  0  0  0  0  0  0  0
    7.3351   -0.9834   13.1968 C   0  0  0  0  0  0  0  0  0  0  0  0
    8.5461   -0.1852   13.7056 C   0  0  0  0  0  0  0  0  0  0  0  0
    9.3706   -0.5171   14.7643 C   0  0  0  0  0  0  0  0  0  0  0  0
    9.3211   -1.8350   15.0527 C   0  0  0  0  0  0  0  0  0  0  0  0
    8.3542   -2.6766   14.3624 C   0  0  0  0  0  0  0  0  0  0  0  0
    7.1890   -2.2760   13.1279 C   0  0  0  0  0  0  0  0  0  0  0  0
   -1.4912   -1.7129    7.3049 H   0  0  0  0  0  0  0  0  0  0  0  0
   -2.6243   -2.6832    8.5083 H   0  0  0  0  0  0  0  0  0  0  0  0
   -2.9114   -1.4105    7.6348 H   0  0  0  0  0  0  0  0  0  0  0  0
   -1.4551   -1.1029   10.2967 H   0  0  0  0  0  0  0  0  0  0  0  0
   -2.3781    0.2010    7.9405 H   0  0  0  0  0  0  0  0  0  0  0  0
   -2.5860    1.2380    9.0473 H   0  0  0  0  0  0  0  0  0  0  0  0
   -4.2473   -1.4487    8.8754 H   0  0  0  0  0  0  0  0  0  0  0  0
   -4.4331   -0.2990   10.0527 H   0  0  0  0  0  0  0  0  0  0  0  0
   -5.2796    1.2871    8.0842 H   0  0  0  0  0  0  0  0  0  0  0  0
   -7.0278    0.2424    9.6189 H   0  0  0  0  0  0  0  0  0  0  0  0
   -6.7588   -1.3055    8.8237 H   0  0  0  0  0  0  0  0  0  0  0  0
   -7.8987    1.2319    7.6110 H   0  0  0  0  0  0  0  0  0  0  0  0
   -8.6088   -0.3903    7.6070 H   0  0  0  0  0  0  0  0  0  0  0  0
   -7.2531   -1.0418    5.7992 H   0  0  0  0  0  0  0  0  0  0  0  0
   -6.9603    0.6862    5.5869 H   0  0  0  0  0  0  0  0  0  0  0  0
   -5.2135   -1.4174    6.7665 H   0  0  0  0  0  0  0  0  0  0  0  0
   -4.7786    0.1908    6.0863 H   0  0  0  0  0  0  0  0  0  0  0  0
    0.6878   -0.8044   11.3246 H   0  0  0  0  0  0  0  0  0  0  0  0
    3.1199   -3.3924   12.4505 H   0  0  0  0  0  0  0  0  0  0  0  0
    3.8470   -1.7990   11.5657 H   0  0  0  0  0  0  0  0  0  0  0  0
    5.1375   -3.1691   14.9585 H   0  0  0  0  0  0  0  0  0  0  0  0
    6.7759   -1.4430   15.3372 H   0  0  0  0  0  0  0  0  0  0  0  0
    8.9758    0.5567   13.0489 H   0  0  0  0  0  0  0  0  0  0  0  0
   10.2097    0.1017   15.0578 H   0  0  0  0  0  0  0  0  0  0  0  0
   10.1370   -2.2742   15.6173 H   0  0  0  0  0  0  0  0  0  0  0  0
    8.4207   -3.6475   14.7995 H   0  0  0  0  0  0  0  0  0  0  0  0
  1  2  1  0
  2  3  1  0
  3  4  1  0
  4  5  1  0
  5  6  1  0
  6  7  1  0
  7  8  1  0
  8  9  1  0
  2 10  1  0
 10 11  1  0
 11 12  2  0
 11 13  1  0
 13 14  1  0
 14 15  2  0
 15 16  1  0
 16 17  1  0
 17 18  2  0
 18 19  1  0
 19 20  2  0
 20 21  1  0
 21 22  2  0
  9  5  1  0
 22 14  1  0
 22 17  1  0
  1 23  1  0
  1 24  1  0
  1 25  1  0
  2 26  1  0
  3 27  1  0
  3 28  1  0
  4 29  1  0
  4 30  1  0
  5 31  1  0
  6 32  1  0
  6 33  1  0
  7 34  1  0
  7 35  1  0
  8 36  1  0
  8 37  1  0
  9 38  1  0
  9 39  1  0
 10 40  1  0
 13 41  1  0
 13 42  1  0
 15 43  1  0
 16 44  1  0
 18 45  1  0
 19 46  1  0
 20 47  1  0
 21 48  1  0
M  END
>  <Energy>  (121) 
1079.9768792564396

>  <compound_id>  (121) 
46292

>  <target_id>  (121) 
1

>  <reference_id>  (121) 
93

>  <inspiration_ids>  (121) 
[93, 99]

>  <energy_score>  (121) 
1017.7898892929458

>  <distance_score>  (121) 
7.0575124436038745

>  <path>  (121) 
/opt/xchem-fragalysis-2/maxwin/BulkDock/SCRATCH/511023/C46292-P93/C46292-P93.minimised.mol

>  <scratch_subdir>  (121) 
/opt/xchem-fragalysis-2/maxwin/BulkDock/SCRATCH/511023/C46292-P93

>  <fragmenstein_runtime>  (121) 
13.170567750930786

>  <fragmenstein_outcome>  (121) 
too moved

>  <fragmenstein_mode>  (121) 
expansion

>  <fragmenstein_error>  (121) 


$$$$
C46292-P99
     RDKit          3D

 48 50  0  0  0  0  0  0  0  0999 V2000
   -1.8304   -1.8126    8.7450 C   0  0  0  0  0  0  0  0  0  0  0  0
   -0.0817   -1.0594    9.6054 C   0  0  0  0  0  0  0  0  0  0  0  0
   -1.7074   -0.3895    8.3125 C   0  0  0  0  0  0  0  0  0  0  0  0
   -3.5624   -0.1491    8.3163 C   0  0  0  0  0  0  0  0  0  0  0  0
   -4.4724   -1.1426    7.5392 C   0  0  0  0  0  0  0  0  0  0  0  0
   -5.9464   -0.7433    7.6819 C   0  0  0  0  0  0  0  0  0  0  0  0
   -6.1807    0.2051    6.5214 C   0  0  0  0  0  0  0  0  0  0  0  0
   -5.4066   -0.4305    5.3783 C   0  0  0  0  0  0  0  0  0  0  0  0
   -4.2588   -1.2035    6.0246 C   0  0  0  0  0  0  0  0  0  0  0  0
    1.7613   -1.2853   10.6059 N   0  0  0  0  0  0  0  0  0  0  0  0
    3.1390    0.0365   11.1440 C   0  0  0  0  0  0  0  0  0  0  0  0
    2.9838    1.2614   11.0223 O   0  0  0  0  0  0  0  0  0  0  0  0
    5.1569   -0.4600   11.7798 C   0  0  0  0  0  0  0  0  0  0  0  0
    6.5385   -1.0079   13.0267 C   0  0  0  0  0  0  0  0  0  0  0  0
    6.4546   -1.8898   14.0999 C   0  0  0  0  0  0  0  0  0  0  0  0
    7.6470   -2.0806   14.7597 N   0  0  0  0  0  0  0  0  0  0  0  0
    8.5088   -1.0569   14.6938 C   0  0  0  0  0  0  0  0  0  0  0  0
    9.7413   -0.8478   15.3584 C   0  0  0  0  0  0  0  0  0  0  0  0
   10.5318    0.2422   15.0328 C   0  0  0  0  0  0  0  0  0  0  0  0
   10.1129    1.0893   14.0471 C   0  0  0  0  0  0  0  0  0  0  0  0
    8.9238    0.7934   13.3609 C   0  0  0  0  0  0  0  0  0  0  0  0
    8.0207   -0.3143   13.6211 C   0  0  0  0  0  0  0  0  0  0  0  0
   -2.0232   -2.0503    7.6233 H   0  0  0  0  0  0  0  0  0  0  0  0
   -2.4119   -2.7300    8.9198 H   0  0  0  0  0  0  0  0  0  0  0  0
   -2.7348   -1.5394    9.2224 H   0  0  0  0  0  0  0  0  0  0  0  0
    0.4120   -1.8414    9.0618 H   0  0  0  0  0  0  0  0  0  0  0  0
   -1.6068   -0.5390    7.1863 H   0  0  0  0  0  0  0  0  0  0  0  0
   -1.9706    0.6830    8.2760 H   0  0  0  0  0  0  0  0  0  0  0  0
   -3.9071   -0.0236    9.3447 H   0  0  0  0  0  0  0  0  0  0  0  0
   -3.7436    0.8422    7.8811 H   0  0  0  0  0  0  0  0  0  0  0  0
   -4.3447   -2.1445    7.9392 H   0  0  0  0  0  0  0  0  0  0  0  0
   -6.1843   -0.2853    8.6464 H   0  0  0  0  0  0  0  0  0  0  0  0
   -6.5832   -1.6294    7.5672 H   0  0  0  0  0  0  0  0  0  0  0  0
   -7.2432    0.3180    6.2865 H   0  0  0  0  0  0  0  0  0  0  0  0
   -5.7814    1.1996    6.7486 H   0  0  0  0  0  0  0  0  0  0  0  0
   -6.0529   -1.1251    4.8284 H   0  0  0  0  0  0  0  0  0  0  0  0
   -5.0522    0.3167    4.6620 H   0  0  0  0  0  0  0  0  0  0  0  0
   -3.2879   -0.8235    5.7124 H   0  0  0  0  0  0  0  0  0  0  0  0
   -4.3038   -2.2460    5.6860 H   0  0  0  0  0  0  0  0  0  0  0  0
    2.0486   -2.1557   10.8577 H   0  0  0  0  0  0  0  0  0  0  0  0
    5.3544    0.3097   12.5136 H   0  0  0  0  0  0  0  0  0  0  0  0
    5.9753   -0.4401   10.9855 H   0  0  0  0  0  0  0  0  0  0  0  0
    5.6283   -2.4707   14.4556 H   0  0  0  0  0  0  0  0  0  0  0  0
    7.8505   -2.8648   15.3423 H   0  0  0  0  0  0  0  0  0  0  0  0
   10.1547   -1.5606   16.0534 H   0  0  0  0  0  0  0  0  0  0  0  0
   11.5023    0.3874   15.4923 H   0  0  0  0  0  0  0  0  0  0  0  0
   10.7345    1.9217   13.7327 H   0  0  0  0  0  0  0  0  0  0  0  0
    8.7914    1.3822   12.4878 H   0  0  0  0  0  0  0  0  0  0  0  0
  1  2  1  0
  2  3  1  0
  3  4  1  0
  4  5  1  0
  5  6  1  0
  6  7  1  0
  7  8  1  0
  8  9  1  0
  2 10  1  0
 10 11  1  0
 11 12  2  0
 11 13  1  0
 13 14  1  0
 14 15  2  0
 15 16  1  0
 16 17  1  0
 17 18  2  0
 18 19  1  0
 19 20  2  0
 20 21  1  0
 21 22  2  0
  9  5  1  0
 22 14  1  0
 22 17  1  0
  1 23  1  0
  1 24  1  0
  1 25  1  0
  2 26  1  0
  3 27  1  0
  3 28  1  0
  4 29  1  0
  4 30  1  0
  5 31  1  0
  6 32  1  0
  6 33  1  0
  7 34  1  0
  7 35  1  0
  8 36  1  0
  8 37  1  0
  9 38  1  0
  9 39  1  0
 10 40  1  0
 13 41  1  0
 13 42  1  0
 15 43  1  0
 16 44  1  0
 18 45  1  0
 19 46  1  0
 20 47  1  0
 21 48  1  0
M  END
>  <Energy>  (122) 
1181.5802484796386

>  <compound_id>  (122) 
46292

>  <target_id>  (122) 
1

>  <reference_id>  (122) 
99

>  <inspiration_ids>  (122) 
[93, 99]

>  <energy_score>  (122) 
1119.3932585161474

>  <distance_score>  (122) 
7.089362503561684

>  <path>  (122) 
/opt/xchem-fragalysis-2/maxwin/BulkDock/SCRATCH/511023/C46292-P99/C46292-P99.minimised.mol

>  <scratch_subdir>  (122) 
/opt/xchem-fragalysis-2/maxwin/BulkDock/SCRATCH/511023/C46292-P99

>  <fragmenstein_runtime>  (122) 
26.56527590751648

>  <fragmenstein_outcome>  (122) 
too moved

>  <fragmenstein_mode>  (122) 
expansion

>  <fragmenstein_error>  (122) 


$$$$
C30247-P93
     RDKit          3D

 40 42  0  0  0  0  0  0  0  0999 V2000
    6.4639    5.4416   17.3744 C   0  0  0  0  0  0  0  0  0  0  0  0
    6.0921    4.3686   16.3459 C   0  0  0  0  0  0  0  0  0  0  0  0
    5.5603    5.0550   15.0101 C   0  0  0  0  0  0  0  0  0  0  0  0
    4.1074    4.7124   14.4724 N   0  0  0  0  0  0  0  0  0  0  0  0
    3.1766    5.1667   14.1173 C   0  0  0  0  0  0  0  0  0  0  0  0
    3.5524    6.7302   14.0728 O   0  0  0  0  0  0  0  0  0  0  0  0
    1.8776    4.5779   13.7565 C   0  0  0  0  0  0  0  0  0  0  0  0
    1.2138    3.4521   14.3371 C   0  0  0  0  0  0  0  0  0  0  0  0
   -0.0309    3.3936   13.7503 C   0  0  0  0  0  0  0  0  0  0  0  0
   -0.0203    4.3430   12.7731 N   0  0  0  0  0  0  0  0  0  0  0  0
    1.0937    5.0940   12.7819 N   0  0  0  0  0  0  0  0  0  0  0  0
    7.2785    3.4947   16.2112 N   0  0  0  0  0  0  0  0  0  0  0  0
    8.6193    3.7838   15.7739 C   0  0  0  0  0  0  0  0  0  0  0  0
    9.0961    4.7892   15.3315 O   0  0  0  0  0  0  0  0  0  0  0  0
    9.6454    2.6495   15.9119 C   0  0  0  0  0  0  0  0  0  0  0  0
   11.0060    3.0114   15.9885 C   0  0  0  0  0  0  0  0  0  0  0  0
   12.0549    2.0764   15.9415 C   0  0  0  0  0  0  0  0  0  0  0  0
   11.7071    0.7385   15.7596 C   0  0  0  0  0  0  0  0  0  0  0  0
   12.5021   -0.3808   15.6367 N   0  0  0  0  0  0  0  0  0  0  0  0
   11.7213   -1.4824   15.4190 C   0  0  0  0  0  0  0  0  0  0  0  0
   10.4075   -1.0736   15.4219 C   0  0  0  0  0  0  0  0  0  0  0  0
   10.3774    0.3234   15.6792 C   0  0  0  0  0  0  0  0  0  0  0  0
    9.3391    1.2810   15.8228 C   0  0  0  0  0  0  0  0  0  0  0  0
    6.8147    4.9856   18.3072 H   0  0  0  0  0  0  0  0  0  0  0  0
    5.5944    6.0633   17.6128 H   0  0  0  0  0  0  0  0  0  0  0  0
    7.2588    6.0986   17.0052 H   0  0  0  0  0  0  0  0  0  0  0  0
    5.2991    3.7457   16.7731 H   0  0  0  0  0  0  0  0  0  0  0  0
    5.5458    6.1406   15.1655 H   0  0  0  0  0  0  0  0  0  0  0  0
    6.2498    4.8943   14.1714 H   0  0  0  0  0  0  0  0  0  0  0  0
    4.6765    3.9649   14.8017 H   0  0  0  0  0  0  0  0  0  0  0  0
    1.5905    2.8295   15.1352 H   0  0  0  0  0  0  0  0  0  0  0  0
   -0.8879    2.7589   13.9073 H   0  0  0  0  0  0  0  0  0  0  0  0
   -0.7313    4.5412   12.0704 H   0  0  0  0  0  0  0  0  0  0  0  0
    7.2533    2.5564   16.6082 H   0  0  0  0  0  0  0  0  0  0  0  0
   11.2720    4.0670   16.0685 H   0  0  0  0  0  0  0  0  0  0  0  0
   13.0892    2.4000   16.0037 H   0  0  0  0  0  0  0  0  0  0  0  0
   13.5134   -0.3754   15.6578 H   0  0  0  0  0  0  0  0  0  0  0  0
   12.1625   -2.4569   15.2535 H   0  0  0  0  0  0  0  0  0  0  0  0
    9.5586   -1.7147   15.2251 H   0  0  0  0  0  0  0  0  0  0  0  0
    8.3157    0.9342   15.7830 H   0  0  0  0  0  0  0  0  0  0  0  0
  1  2  1  0
  2  3  1  0
  3  4  1  0
  4  5  1  0
  5  6  2  0
  5  7  1  0
  7  8  1  0
  8  9  2  0
  9 10  1  0
 10 11  1  0
  2 12  1  0
 12 13  1  0
 13 14  2  0
 13 15  1  0
 15 16  2  0
 16 17  1  0
 17 18  2  0
 18 19  1  0
 19 20  1  0
 20 21  2  0
 21 22  1  0
 22 23  2  0
 11  7  2  0
 23 15  1  0
 22 18  1  0
  1 24  1  0
  1 25  1  0
  1 26  1  0
  2 27  1  0
  3 28  1  0
  3 29  1  0
  4 30  1  0
  8 31  1  0
  9 32  1  0
 10 33  1  0
 12 34  1  0
 16 35  1  0
 17 36  1  0
 19 37  1  0
 20 38  1  0
 21 39  1  0
 23 40  1  0
M  END
>  <Energy>  (123) 
282.38163797021406

>  <compound_id>  (123) 
30247

>  <target_id>  (123) 
1

>  <reference_id>  (123) 
93

>  <inspiration_ids>  (123) 
[93, 99]

>  <energy_score>  (123) 
209.69123791994292

>  <distance_score>  (123) 
9.128375513251264

>  <path>  (123) 
/opt/xchem-fragalysis-2/maxwin/BulkDock/SCRATCH/511023/C30247-P93/C30247-P93.minimised.mol

>  <scratch_subdir>  (123) 
/opt/xchem-fragalysis-2/maxwin/BulkDock/SCRATCH/511023/C30247-P93

>  <fragmenstein_runtime>  (123) 
13.800241231918335

>  <fragmenstein_outcome>  (123) 
too moved

>  <fragmenstein_mode>  (123) 
expansion

>  <fragmenstein_error>  (123) 


$$$$
C30247-P99
     RDKit          3D

 40 42  0  0  0  0  0  0  0  0999 V2000
    6.5125   -0.8377   12.0533 C   0  0  0  0  0  0  0  0  0  0  0  0
    6.0132   -1.8997   12.9481 C   0  0  0  0  0  0  0  0  0  0  0  0
    4.3026   -2.7204   12.0684 C   0  0  0  0  0  0  0  0  0  0  0  0
    2.9854   -2.2483   10.7365 N   0  0  0  0  0  0  0  0  0  0  0  0
    1.2416   -1.4942   10.8816 C   0  0  0  0  0  0  0  0  0  0  0  0
    0.7850   -1.1148   11.9579 O   0  0  0  0  0  0  0  0  0  0  0  0
   -0.1099   -1.1649    9.4154 C   0  0  0  0  0  0  0  0  0  0  0  0
   -2.0717   -0.8698    8.9149 C   0  0  0  0  0  0  0  0  0  0  0  0
   -2.8680   -0.8127    7.7260 C   0  0  0  0  0  0  0  0  0  0  0  0
   -1.7745   -1.2392    7.2202 N   0  0  0  0  0  0  0  0  0  0  0  0
   -1.3098   -1.8261    8.4360 N   0  0  0  0  0  0  0  0  0  0  0  0
    7.4462   -1.8674   13.6270 N   0  0  0  0  0  0  0  0  0  0  0  0
    7.9162   -1.2033   14.8145 C   0  0  0  0  0  0  0  0  0  0  0  0
    7.3256   -0.5744   15.6410 O   0  0  0  0  0  0  0  0  0  0  0  0
    9.4320   -1.2145   14.9930 C   0  0  0  0  0  0  0  0  0  0  0  0
   10.0637    0.0372   15.0645 C   0  0  0  0  0  0  0  0  0  0  0  0
   11.4639    0.1702   15.1089 C   0  0  0  0  0  0  0  0  0  0  0  0
   12.2256   -1.0004   15.1848 C   0  0  0  0  0  0  0  0  0  0  0  0
   13.5821   -1.1858   15.3305 N   0  0  0  0  0  0  0  0  0  0  0  0
   13.8697   -2.5228   15.3958 C   0  0  0  0  0  0  0  0  0  0  0  0
   12.6859   -3.2156   15.2828 C   0  0  0  0  0  0  0  0  0  0  0  0
   11.6428   -2.2623   15.1344 C   0  0  0  0  0  0  0  0  0  0  0  0
   10.2440   -2.3526   14.9806 C   0  0  0  0  0  0  0  0  0  0  0  0
    7.0309   -1.2147   11.1843 H   0  0  0  0  0  0  0  0  0  0  0  0
    7.2228   -0.1181   12.4497 H   0  0  0  0  0  0  0  0  0  0  0  0
    5.5956   -0.4010   11.8090 H   0  0  0  0  0  0  0  0  0  0  0  0
    5.7070   -1.8322   14.0191 H   0  0  0  0  0  0  0  0  0  0  0  0
    4.6786   -3.6200   11.5804 H   0  0  0  0  0  0  0  0  0  0  0  0
    3.6022   -3.1237   12.8294 H   0  0  0  0  0  0  0  0  0  0  0  0
    3.1285   -2.5691    9.7902 H   0  0  0  0  0  0  0  0  0  0  0  0
   -2.7212   -0.1994    9.5056 H   0  0  0  0  0  0  0  0  0  0  0  0
   -3.8370   -0.4787    7.3921 H   0  0  0  0  0  0  0  0  0  0  0  0
   -1.4059   -1.4932    6.3049 H   0  0  0  0  0  0  0  0  0  0  0  0
    8.2289   -2.2230   13.1242 H   0  0  0  0  0  0  0  0  0  0  0  0
    9.4529    0.9396   15.0384 H   0  0  0  0  0  0  0  0  0  0  0  0
   11.9232    1.1528   15.1299 H   0  0  0  0  0  0  0  0  0  0  0  0
   14.2591   -0.4391   15.4060 H   0  0  0  0  0  0  0  0  0  0  0  0
   14.8854   -2.8695   15.5312 H   0  0  0  0  0  0  0  0  0  0  0  0
   12.5797   -4.2933   15.3222 H   0  0  0  0  0  0  0  0  0  0  0  0
    9.8071   -3.3365   14.9402 H   0  0  0  0  0  0  0  0  0  0  0  0
  1  2  1  0
  2  3  1  0
  3  4  1  0
  4  5  1  0
  5  6  2  0
  5  7  1  0
  7  8  1  0
  8  9  2  0
  9 10  1  0
 10 11  1  0
  2 12  1  0
 12 13  1  0
 13 14  2  0
 13 15  1  0
 15 16  2  0
 16 17  1  0
 17 18  2  0
 18 19  1  0
 19 20  1  0
 20 21  2  0
 21 22  1  0
 22 23  2  0
 11  7  2  0
 23 15  1  0
 22 18  1  0
  1 24  1  0
  1 25  1  0
  1 26  1  0
  2 27  1  0
  3 28  1  0
  3 29  1  0
  4 30  1  0
  8 31  1  0
  9 32  1  0
 10 33  1  0
 12 34  1  0
 16 35  1  0
 17 36  1  0
 19 37  1  0
 20 38  1  0
 21 39  1  0
 23 40  1  0
M  END
>  <Energy>  (124) 
892.39449746758419

>  <compound_id>  (124) 
30247

>  <target_id>  (124) 
1

>  <reference_id>  (124) 
99

>  <inspiration_ids>  (124) 
[93, 99]

>  <energy_score>  (124) 
819.704097417313

>  <distance_score>  (124) 
6.084757375617764

>  <path>  (124) 
/opt/xchem-fragalysis-2/maxwin/BulkDock/SCRATCH/511023/C30247-P99/C30247-P99.minimised.mol

>  <scratch_subdir>  (124) 
/opt/xchem-fragalysis-2/maxwin/BulkDock/SCRATCH/511023/C30247-P99

>  <fragmenstein_runtime>  (124) 
8.361374139785767

>  <fragmenstein_outcome>  (124) 
too moved

>  <fragmenstein_mode>  (124) 
expansion

>  <fragmenstein_error>  (124) 


$$$$
C30248-P93
     RDKit          3D

 40 42  0  0  0  0  0  0  0  0999 V2000
    4.7990    2.3549    9.2090 C   0  0  0  0  0  0  0  0  0  0  0  0
    3.8631    2.4983   10.4142 C   0  0  0  0  0  0  0  0  0  0  0  0
    4.2140    3.6125   11.4866 C   0  0  0  0  0  0  0  0  0  0  0  0
    5.6180    4.0463   11.6475 N   0  0  0  0  0  0  0  0  0  0  0  0
    6.2048    5.0744   12.4839 C   0  0  0  0  0  0  0  0  0  0  0  0
    5.6924    5.8885   13.1965 O   0  0  0  0  0  0  0  0  0  0  0  0
    7.7335    5.0357   12.5377 C   0  0  0  0  0  0  0  0  0  0  0  0
    8.5887    4.9972   11.4379 C   0  0  0  0  0  0  0  0  0  0  0  0
    9.9498    4.6200   11.5778 C   0  0  0  0  0  0  0  0  0  0  0  0
   10.4071    4.2049   12.8414 C   0  0  0  0  0  0  0  0  0  0  0  0
   11.6231    3.6920   13.2452 N   0  0  0  0  0  0  0  0  0  0  0  0
   11.5945    3.4137   14.5861 C   0  0  0  0  0  0  0  0  0  0  0  0
   10.3530    3.7626   15.0651 C   0  0  0  0  0  0  0  0  0  0  0  0
    9.5952    4.2717   13.9717 C   0  0  0  0  0  0  0  0  0  0  0  0
    8.2729    4.7543   13.8216 C   0  0  0  0  0  0  0  0  0  0  0  0
    2.8952    1.3630   10.6511 N   0  0  0  0  0  0  0  0  0  0  0  0
    1.8248    0.4982    9.5661 C   0  0  0  0  0  0  0  0  0  0  0  0
    1.8898    0.7524    8.4239 O   0  0  0  0  0  0  0  0  0  0  0  0
    0.3323   -0.7958   10.0002 C   0  0  0  0  0  0  0  0  0  0  0  0
   -1.0961   -1.2524   10.7270 C   0  0  0  0  0  0  0  0  0  0  0  0
   -2.2582   -1.6059    9.2171 C   0  0  0  0  0  0  0  0  0  0  0  0
   -1.8025   -1.0238    8.1784 N   0  0  0  0  0  0  0  0  0  0  0  0
   -1.3138   -0.4005    9.2156 N   0  0  0  0  0  0  0  0  0  0  0  0
    5.3277    3.2920    9.0050 H   0  0  0  0  0  0  0  0  0  0  0  0
    5.5406    1.5704    9.3129 H   0  0  0  0  0  0  0  0  0  0  0  0
    4.2224    2.1183    8.3083 H   0  0  0  0  0  0  0  0  0  0  0  0
    3.0994    3.1053    9.8928 H   0  0  0  0  0  0  0  0  0  0  0  0
    3.8780    3.2722   12.4697 H   0  0  0  0  0  0  0  0  0  0  0  0
    3.6444    4.5275   11.2803 H   0  0  0  0  0  0  0  0  0  0  0  0
    6.3498    3.5939   11.1179 H   0  0  0  0  0  0  0  0  0  0  0  0
    8.1994    5.2277   10.4478 H   0  0  0  0  0  0  0  0  0  0  0  0
   10.5996    4.5916   10.7068 H   0  0  0  0  0  0  0  0  0  0  0  0
   12.4207    3.5523   12.6393 H   0  0  0  0  0  0  0  0  0  0  0  0
   12.4619    3.0021   15.0853 H   0  0  0  0  0  0  0  0  0  0  0  0
   10.0231    3.6705   16.0919 H   0  0  0  0  0  0  0  0  0  0  0  0
    7.6173    4.7890   14.6919 H   0  0  0  0  0  0  0  0  0  0  0  0
    2.7825    0.9740   11.5795 H   0  0  0  0  0  0  0  0  0  0  0  0
   -1.3721   -0.9228   11.7756 H   0  0  0  0  0  0  0  0  0  0  0  0
   -3.3235   -1.8528    9.1394 H   0  0  0  0  0  0  0  0  0  0  0  0
   -2.3953   -0.5907    7.4828 H   0  0  0  0  0  0  0  0  0  0  0  0
  1  2  1  0
  2  3  1  0
  3  4  1  0
  4  5  1  0
  5  6  2  0
  5  7  1  0
  7  8  2  0
  8  9  1  0
  9 10  2  0
 10 11  1  0
 11 12  1  0
 12 13  2  0
 13 14  1  0
 14 15  2  0
  2 16  1  0
 16 17  1  0
 17 18  2  0
 17 19  1  0
 19 20  1  0
 20 21  2  0
 21 22  1  0
 22 23  1  0
 15  7  1  0
 23 19  2  0
 14 10  1  0
  1 24  1  0
  1 25  1  0
  1 26  1  0
  2 27  1  0
  3 28  1  0
  3 29  1  0
  4 30  1  0
  8 31  1  0
  9 32  1  0
 11 33  1  0
 12 34  1  0
 13 35  1  0
 15 36  1  0
 16 37  1  0
 20 38  1  0
 21 39  1  0
 22 40  1  0
M  END
>  <Energy>  (125) 
663.73631097653845

>  <compound_id>  (125) 
30248

>  <target_id>  (125) 
1

>  <reference_id>  (125) 
93

>  <inspiration_ids>  (125) 
[93, 99]

>  <energy_score>  (125) 
590.4373718121487

>  <distance_score>  (125) 
9.18188833055019

>  <path>  (125) 
/opt/xchem-fragalysis-2/maxwin/BulkDock/SCRATCH/511023/C30248-P93/C30248-P93.minimised.mol

>  <scratch_subdir>  (125) 
/opt/xchem-fragalysis-2/maxwin/BulkDock/SCRATCH/511023/C30248-P93

>  <fragmenstein_runtime>  (125) 
11.945716142654419

>  <fragmenstein_outcome>  (125) 
too moved

>  <fragmenstein_mode>  (125) 
expansion

>  <fragmenstein_error>  (125) 


$$$$
C30248-P99
     RDKit          3D

 40 42  0  0  0  0  0  0  0  0999 V2000
    6.8551   -0.5763   11.4634 C   0  0  0  0  0  0  0  0  0  0  0  0
    5.4931   -0.5584   12.3054 C   0  0  0  0  0  0  0  0  0  0  0  0
    6.2770   -1.4031   13.7914 C   0  0  0  0  0  0  0  0  0  0  0  0
    7.6821   -1.1290   14.0909 N   0  0  0  0  0  0  0  0  0  0  0  0
    8.2945   -0.4640   15.1941 C   0  0  0  0  0  0  0  0  0  0  0  0
    7.8129    0.1116   16.1226 O   0  0  0  0  0  0  0  0  0  0  0  0
    9.7992   -0.5340   15.1102 C   0  0  0  0  0  0  0  0  0  0  0  0
   10.5598    0.6342   15.0789 C   0  0  0  0  0  0  0  0  0  0  0  0
   11.9625    0.5811   14.9849 C   0  0  0  0  0  0  0  0  0  0  0  0
   12.5784   -0.6780   15.0196 C   0  0  0  0  0  0  0  0  0  0  0  0
   13.9099   -1.0293   15.0392 N   0  0  0  0  0  0  0  0  0  0  0  0
   14.0385   -2.3920   15.0802 C   0  0  0  0  0  0  0  0  0  0  0  0
   12.7745   -2.9358   15.0939 C   0  0  0  0  0  0  0  0  0  0  0  0
   11.8460   -1.8618   15.0524 C   0  0  0  0  0  0  0  0  0  0  0  0
   10.4422   -1.7819   15.0470 C   0  0  0  0  0  0  0  0  0  0  0  0
    3.9218   -0.4387   11.0374 N   0  0  0  0  0  0  0  0  0  0  0  0
    1.9230   -0.9246   11.1800 C   0  0  0  0  0  0  0  0  0  0  0  0
    1.4975   -1.2664   12.2360 O   0  0  0  0  0  0  0  0  0  0  0  0
    0.3769   -1.1604    9.7430 C   0  0  0  0  0  0  0  0  0  0  0  0
   -1.6277   -1.2340    9.1085 C   0  0  0  0  0  0  0  0  0  0  0  0
   -2.5912   -1.9537    8.3538 C   0  0  0  0  0  0  0  0  0  0  0  0
   -1.4623   -1.4035    7.8896 N   0  0  0  0  0  0  0  0  0  0  0  0
    0.0907   -2.1157    8.7757 N   0  0  0  0  0  0  0  0  0  0  0  0
    6.8145   -0.2502   10.4213 H   0  0  0  0  0  0  0  0  0  0  0  0
    7.5752   -0.0004   12.0287 H   0  0  0  0  0  0  0  0  0  0  0  0
    7.2243   -1.5842   11.3907 H   0  0  0  0  0  0  0  0  0  0  0  0
    5.5264   -1.6587   12.0998 H   0  0  0  0  0  0  0  0  0  0  0  0
    6.3167   -2.4395   13.5856 H   0  0  0  0  0  0  0  0  0  0  0  0
    5.7035   -1.6424   14.6587 H   0  0  0  0  0  0  0  0  0  0  0  0
    8.4093   -1.4370   13.4433 H   0  0  0  0  0  0  0  0  0  0  0  0
   10.0626    1.6014   15.1167 H   0  0  0  0  0  0  0  0  0  0  0  0
   12.5470    1.4939   14.9405 H   0  0  0  0  0  0  0  0  0  0  0  0
   14.6777   -0.3724   15.0379 H   0  0  0  0  0  0  0  0  0  0  0  0
   15.0131   -2.8605   15.1105 H   0  0  0  0  0  0  0  0  0  0  0  0
   12.5427   -3.9930   15.1485 H   0  0  0  0  0  0  0  0  0  0  0  0
    9.8717   -2.7008   15.0090 H   0  0  0  0  0  0  0  0  0  0  0  0
    4.1188   -0.0807   10.1315 H   0  0  0  0  0  0  0  0  0  0  0  0
   -2.4606   -0.4163    9.3423 H   0  0  0  0  0  0  0  0  0  0  0  0
   -2.9363   -2.7892    7.7649 H   0  0  0  0  0  0  0  0  0  0  0  0
   -1.2443   -1.3028    6.8982 H   0  0  0  0  0  0  0  0  0  0  0  0
  1  2  1  0
  2  3  1  0
  3  4  1  0
  4  5  1  0
  5  6  2  0
  5  7  1  0
  7  8  2  0
  8  9  1  0
  9 10  2  0
 10 11  1  0
 11 12  1  0
 12 13  2  0
 13 14  1  0
 14 15  2  0
  2 16  1  0
 16 17  1  0
 17 18  2  0
 17 19  1  0
 19 20  1  0
 20 21  2  0
 21 22  1  0
 22 23  1  0
 15  7  1  0
 23 19  2  0
 14 10  1  0
  1 24  1  0
  1 25  1  0
  1 26  1  0
  2 27  1  0
  3 28  1  0
  3 29  1  0
  4 30  1  0
  8 31  1  0
  9 32  1  0
 11 33  1  0
 12 34  1  0
 13 35  1  0
 15 36  1  0
 16 37  1  0
 20 38  1  0
 21 39  1  0
 22 40  1  0
M  END
>  <Energy>  (126) 
1037.1189751951404

>  <compound_id>  (126) 
30248

>  <target_id>  (126) 
1

>  <reference_id>  (126) 
99

>  <inspiration_ids>  (126) 
[93, 99]

>  <energy_score>  (126) 
963.8200360307574

>  <distance_score>  (126) 
6.185327482718618

>  <path>  (126) 
/opt/xchem-fragalysis-2/maxwin/BulkDock/SCRATCH/511023/C30248-P99/C30248-P99.minimised.mol

>  <scratch_subdir>  (126) 
/opt/xchem-fragalysis-2/maxwin/BulkDock/SCRATCH/511023/C30248-P99

>  <fragmenstein_runtime>  (126) 
8.591603994369507

>  <fragmenstein_outcome>  (126) 
too moved

>  <fragmenstein_mode>  (126) 
expansion

>  <fragmenstein_error>  (126) 


$$$$
C30249-P93
     RDKit          3D

 41 43  0  0  0  0  0  0  0  0999 V2000
    8.1896   -3.6363   14.4356 O   0  0  0  0  0  0  0  0  0  0  0  0
    8.9559   -4.6381   14.7695 C   0  0  0  0  0  0  0  0  0  0  0  0
    8.6918   -6.6499   14.6450 N   0  0  0  0  0  0  0  0  0  0  0  0
    7.2885   -7.7915   13.8773 C   0  0  0  0  0  0  0  0  0  0  0  0
    7.2893   -9.3554   13.5518 C   0  0  0  0  0  0  0  0  0  0  0  0
    7.6074  -10.3389   14.6745 C   0  0  0  0  0  0  0  0  0  0  0  0
    8.9343  -10.1632   15.1504 O   0  0  0  0  0  0  0  0  0  0  0  0
    5.9723   -9.7017   12.9058 N   0  0  0  0  0  0  0  0  0  0  0  0
    4.6759   -9.9697   13.4825 C   0  0  0  0  0  0  0  0  0  0  0  0
    4.3369  -10.0622   14.6258 O   0  0  0  0  0  0  0  0  0  0  0  0
    3.5659  -10.1070   12.4239 C   0  0  0  0  0  0  0  0  0  0  0  0
    3.5267   -9.7094   11.0462 C   0  0  0  0  0  0  0  0  0  0  0  0
    2.2480   -9.9715   10.6021 C   0  0  0  0  0  0  0  0  0  0  0  0
    1.5720  -10.4473   11.6780 N   0  0  0  0  0  0  0  0  0  0  0  0
    2.3404  -10.5749   12.7679 N   0  0  0  0  0  0  0  0  0  0  0  0
   10.5650   -4.0093   15.3063 C   0  0  0  0  0  0  0  0  0  0  0  0
   10.6667   -2.6139   15.0765 C   0  0  0  0  0  0  0  0  0  0  0  0
   11.7635   -1.8052   15.4148 C   0  0  0  0  0  0  0  0  0  0  0  0
   12.8380   -2.3961   16.0737 C   0  0  0  0  0  0  0  0  0  0  0  0
   14.0863   -1.9175   16.5556 C   0  0  0  0  0  0  0  0  0  0  0  0
   14.7445   -2.9830   17.1204 C   0  0  0  0  0  0  0  0  0  0  0  0
   13.9362   -4.0788   16.9913 N   0  0  0  0  0  0  0  0  0  0  0  0
   12.7498   -3.7486   16.3806 C   0  0  0  0  0  0  0  0  0  0  0  0
   11.6313   -4.5529   16.0479 C   0  0  0  0  0  0  0  0  0  0  0  0
    9.4714   -7.1671   15.0839 H   0  0  0  0  0  0  0  0  0  0  0  0
    6.3944   -7.6793   14.5301 H   0  0  0  0  0  0  0  0  0  0  0  0
    7.1999   -7.4737   12.8054 H   0  0  0  0  0  0  0  0  0  0  0  0
    7.9726   -9.5563   12.7268 H   0  0  0  0  0  0  0  0  0  0  0  0
    7.5352  -11.3651   14.2967 H   0  0  0  0  0  0  0  0  0  0  0  0
    6.9001  -10.2660   15.5066 H   0  0  0  0  0  0  0  0  0  0  0  0
    8.8690   -9.4087   15.7773 H   0  0  0  0  0  0  0  0  0  0  0  0
    5.8751   -9.6127   11.9035 H   0  0  0  0  0  0  0  0  0  0  0  0
    4.3183   -9.2754   10.4532 H   0  0  0  0  0  0  0  0  0  0  0  0
    1.7655   -9.8607    9.6428 H   0  0  0  0  0  0  0  0  0  0  0  0
    0.5979  -10.7273   11.7410 H   0  0  0  0  0  0  0  0  0  0  0  0
    9.8126   -2.0877   14.6656 H   0  0  0  0  0  0  0  0  0  0  0  0
   11.7590   -0.7481   15.1680 H   0  0  0  0  0  0  0  0  0  0  0  0
   14.4655   -0.9065   16.4827 H   0  0  0  0  0  0  0  0  0  0  0  0
   15.7193   -3.0585   17.5833 H   0  0  0  0  0  0  0  0  0  0  0  0
   14.1907   -5.0161   17.2480 H   0  0  0  0  0  0  0  0  0  0  0  0
   11.6490   -5.5990   16.3197 H   0  0  0  0  0  0  0  0  0  0  0  0
  1  2  2  0
  2  3  1  0
  3  4  1  0
  4  5  1  0
  5  6  1  0
  6  7  1  0
  5  8  1  0
  8  9  1  0
  9 10  2  0
  9 11  1  0
 11 12  1  0
 12 13  2  0
 13 14  1  0
 14 15  1  0
  2 16  1  0
 16 17  2  0
 17 18  1  0
 18 19  2  0
 19 20  1  0
 20 21  2  0
 21 22  1  0
 22 23  1  0
 23 24  2  0
 15 11  2  0
 24 16  1  0
 23 19  1  0
  3 25  1  0
  4 26  1  0
  4 27  1  0
  5 28  1  0
  6 29  1  0
  6 30  1  0
  7 31  1  0
  8 32  1  0
 12 33  1  0
 13 34  1  0
 14 35  1  0
 17 36  1  0
 18 37  1  0
 20 38  1  0
 21 39  1  0
 22 40  1  0
 24 41  1  0
M  END
>  <Energy>  (127) 
353.63716250029506

>  <compound_id>  (127) 
30249

>  <target_id>  (127) 
1

>  <reference_id>  (127) 
93

>  <inspiration_ids>  (127) 
[93, 99]

>  <energy_score>  (127) 
246.67989701279453

>  <distance_score>  (127) 
9.292138759251202

>  <path>  (127) 
/opt/xchem-fragalysis-2/maxwin/BulkDock/SCRATCH/511023/C30249-P93/C30249-P93.minimised.mol

>  <scratch_subdir>  (127) 
/opt/xchem-fragalysis-2/maxwin/BulkDock/SCRATCH/511023/C30249-P93

>  <fragmenstein_runtime>  (127) 
22.579030990600586

>  <fragmenstein_outcome>  (127) 
too moved

>  <fragmenstein_mode>  (127) 
expansion

>  <fragmenstein_error>  (127) 


$$$$
C30249-P99
     RDKit          3D

 41 43  0  0  0  0  0  0  0  0999 V2000
    7.7202   -0.1166   15.8946 O   0  0  0  0  0  0  0  0  0  0  0  0
    8.2177   -0.7385   15.0032 C   0  0  0  0  0  0  0  0  0  0  0  0
    7.6197   -1.4190   13.8850 N   0  0  0  0  0  0  0  0  0  0  0  0
    6.2143   -1.4870   13.4265 C   0  0  0  0  0  0  0  0  0  0  0  0
    5.3612   -0.5417   11.9648 C   0  0  0  0  0  0  0  0  0  0  0  0
    6.7943   -0.5818   11.2099 C   0  0  0  0  0  0  0  0  0  0  0  0
    7.7338    0.2003   12.0044 O   0  0  0  0  0  0  0  0  0  0  0  0
    3.5561   -0.0647   11.0698 N   0  0  0  0  0  0  0  0  0  0  0  0
    1.8695   -1.1320   10.7735 C   0  0  0  0  0  0  0  0  0  0  0  0
    1.9545   -2.1146   11.2889 O   0  0  0  0  0  0  0  0  0  0  0  0
    0.0799   -1.0791    9.6349 C   0  0  0  0  0  0  0  0  0  0  0  0
   -1.6092   -0.5825    8.4984 C   0  0  0  0  0  0  0  0  0  0  0  0
   -2.7513   -1.0748    7.7860 C   0  0  0  0  0  0  0  0  0  0  0  0
   -2.4525   -1.9236    8.6972 N   0  0  0  0  0  0  0  0  0  0  0  0
   -1.0603   -1.8106    8.5748 N   0  0  0  0  0  0  0  0  0  0  0  0
    9.7303   -0.8067   15.0031 C   0  0  0  0  0  0  0  0  0  0  0  0
   10.4449    0.3904   14.9584 C   0  0  0  0  0  0  0  0  0  0  0  0
   11.8503    0.3876   14.9608 C   0  0  0  0  0  0  0  0  0  0  0  0
   12.5516   -0.8265   15.1120 C   0  0  0  0  0  0  0  0  0  0  0  0
   13.9238   -1.1724   15.2555 C   0  0  0  0  0  0  0  0  0  0  0  0
   13.9974   -2.5378   15.4135 C   0  0  0  0  0  0  0  0  0  0  0  0
   12.7225   -3.0400   15.3513 N   0  0  0  0  0  0  0  0  0  0  0  0
   11.8232   -2.0116   15.1599 C   0  0  0  0  0  0  0  0  0  0  0  0
   10.4256   -2.0287   15.0391 C   0  0  0  0  0  0  0  0  0  0  0  0
    8.3430   -1.9121   13.3735 H   0  0  0  0  0  0  0  0  0  0  0  0
    5.9317   -2.5024   13.3639 H   0  0  0  0  0  0  0  0  0  0  0  0
    5.7534   -1.3268   14.3544 H   0  0  0  0  0  0  0  0  0  0  0  0
    5.4358    0.2894   12.5848 H   0  0  0  0  0  0  0  0  0  0  0  0
    6.8179   -0.2017   10.1845 H   0  0  0  0  0  0  0  0  0  0  0  0
    7.1663   -1.5909   11.2199 H   0  0  0  0  0  0  0  0  0  0  0  0
    8.2040   -0.3886   12.6120 H   0  0  0  0  0  0  0  0  0  0  0  0
    3.4934    0.7969   10.5205 H   0  0  0  0  0  0  0  0  0  0  0  0
   -2.0228    0.4500    8.3964 H   0  0  0  0  0  0  0  0  0  0  0  0
   -3.6492   -0.7173    7.3075 H   0  0  0  0  0  0  0  0  0  0  0  0
   -2.9310   -2.7845    8.9291 H   0  0  0  0  0  0  0  0  0  0  0  0
    9.9138    1.3389   14.9071 H   0  0  0  0  0  0  0  0  0  0  0  0
   12.3931    1.3270   14.9077 H   0  0  0  0  0  0  0  0  0  0  0  0
   14.7640   -0.4906   15.2672 H   0  0  0  0  0  0  0  0  0  0  0  0
   14.8403   -3.1978   15.5707 H   0  0  0  0  0  0  0  0  0  0  0  0
   12.4770   -4.0166   15.4660 H   0  0  0  0  0  0  0  0  0  0  0  0
    9.9034   -2.9750   15.0191 H   0  0  0  0  0  0  0  0  0  0  0  0
  1  2  2  0
  2  3  1  0
  3  4  1  0
  4  5  1  0
  5  6  1  0
  6  7  1  0
  5  8  1  0
  8  9  1  0
  9 10  2  0
  9 11  1  0
 11 12  1  0
 12 13  2  0
 13 14  1  0
 14 15  1  0
  2 16  1  0
 16 17  2  0
 17 18  1  0
 18 19  2  0
 19 20  1  0
 20 21  2  0
 21 22  1  0
 22 23  1  0
 23 24  2  0
 15 11  2  0
 24 16  1  0
 23 19  1  0
  3 25  1  0
  4 26  1  0
  4 27  1  0
  5 28  1  0
  6 29  1  0
  6 30  1  0
  7 31  1  0
  8 32  1  0
 12 33  1  0
 13 34  1  0
 14 35  1  0
 17 36  1  0
 18 37  1  0
 20 38  1  0
 21 39  1  0
 22 40  1  0
 24 41  1  0
M  END
>  <Energy>  (128) 
1143.4186482252508

>  <compound_id>  (128) 
30249

>  <target_id>  (128) 
1

>  <reference_id>  (128) 
99

>  <inspiration_ids>  (128) 
[93, 99]

>  <energy_score>  (128) 
1036.4613827377586

>  <distance_score>  (128) 
5.899970576331097

>  <path>  (128) 
/opt/xchem-fragalysis-2/maxwin/BulkDock/SCRATCH/511023/C30249-P99/C30249-P99.minimised.mol

>  <scratch_subdir>  (128) 
/opt/xchem-fragalysis-2/maxwin/BulkDock/SCRATCH/511023/C30249-P99

>  <fragmenstein_runtime>  (128) 
15.666510343551636

>  <fragmenstein_outcome>  (128) 
too moved

>  <fragmenstein_mode>  (128) 
expansion

>  <fragmenstein_error>  (128) 


$$$$
C30250-P93
     RDKit          3D

 43 45  0  0  0  0  0  0  0  0999 V2000
    3.1493    0.4408   11.1820 C   0  0  0  0  0  0  0  0  0  0  0  0
    2.3247   -1.2257   11.4353 C   0  0  0  0  0  0  0  0  0  0  0  0
    3.8601   -2.5991   11.8519 C   0  0  0  0  0  0  0  0  0  0  0  0
    5.8271   -2.3132   12.4669 C   0  0  0  0  0  0  0  0  0  0  0  0
    7.0597   -1.5921   13.2422 N   0  0  0  0  0  0  0  0  0  0  0  0
    7.7139   -1.9146   14.5142 C   0  0  0  0  0  0  0  0  0  0  0  0
    7.4483   -2.7316   15.3240 O   0  0  0  0  0  0  0  0  0  0  0  0
    9.0316   -1.2045   14.9008 C   0  0  0  0  0  0  0  0  0  0  0  0
   10.1939   -2.0501   14.9511 C   0  0  0  0  0  0  0  0  0  0  0  0
   11.4905   -1.6170   15.2086 C   0  0  0  0  0  0  0  0  0  0  0  0
   11.7061   -0.2927   15.5172 C   0  0  0  0  0  0  0  0  0  0  0  0
   10.5681    0.4889   15.7244 C   0  0  0  0  0  0  0  0  0  0  0  0
   10.5122    1.7854   16.1839 N   0  0  0  0  0  0  0  0  0  0  0  0
    9.2335    2.0723   16.5573 C   0  0  0  0  0  0  0  0  0  0  0  0
    8.4445    1.0031   16.2015 C   0  0  0  0  0  0  0  0  0  0  0  0
    9.2455    0.0396   15.5284 C   0  0  0  0  0  0  0  0  0  0  0  0
    0.9466   -1.3228   10.4012 N   0  0  0  0  0  0  0  0  0  0  0  0
   -0.5491   -1.1247   10.6965 C   0  0  0  0  0  0  0  0  0  0  0  0
   -1.1482   -0.9262   11.7852 O   0  0  0  0  0  0  0  0  0  0  0  0
   -1.8320   -0.9715    9.1848 C   0  0  0  0  0  0  0  0  0  0  0  0
   -2.8853    0.0285    8.8791 C   0  0  0  0  0  0  0  0  0  0  0  0
   -3.9580   -0.5622    8.2449 C   0  0  0  0  0  0  0  0  0  0  0  0
   -3.4822   -1.7689    7.9494 N   0  0  0  0  0  0  0  0  0  0  0  0
   -2.2019   -1.9210    8.2750 N   0  0  0  0  0  0  0  0  0  0  0  0
    2.9799    1.0980   12.0486 H   0  0  0  0  0  0  0  0  0  0  0  0
    4.1976    0.2654   11.0112 H   0  0  0  0  0  0  0  0  0  0  0  0
    2.8288    0.9920   10.2844 H   0  0  0  0  0  0  0  0  0  0  0  0
    2.3620   -2.1577   10.7126 H   0  0  0  0  0  0  0  0  0  0  0  0
    3.7654   -3.4064   11.1111 H   0  0  0  0  0  0  0  0  0  0  0  0
    3.4531   -3.2510   12.6710 H   0  0  0  0  0  0  0  0  0  0  0  0
    5.7371   -1.2281   12.2044 H   0  0  0  0  0  0  0  0  0  0  0  0
    5.7059   -2.8700   13.3953 H   0  0  0  0  0  0  0  0  0  0  0  0
    7.6061   -0.8856   12.7561 H   0  0  0  0  0  0  0  0  0  0  0  0
   10.0835   -3.1014   14.6965 H   0  0  0  0  0  0  0  0  0  0  0  0
   12.3221   -2.3131   15.1315 H   0  0  0  0  0  0  0  0  0  0  0  0
   12.7077    0.0875   15.6932 H   0  0  0  0  0  0  0  0  0  0  0  0
   11.3201    2.3679   16.3706 H   0  0  0  0  0  0  0  0  0  0  0  0
    8.9933    3.0086   17.0458 H   0  0  0  0  0  0  0  0  0  0  0  0
    7.3854    0.9437   16.4089 H   0  0  0  0  0  0  0  0  0  0  0  0
    1.0813   -1.3744    9.3958 H   0  0  0  0  0  0  0  0  0  0  0  0
   -2.9510    1.0595    9.1211 H   0  0  0  0  0  0  0  0  0  0  0  0
   -4.9333   -0.2078    7.9486 H   0  0  0  0  0  0  0  0  0  0  0  0
   -3.9403   -2.5235    7.4499 H   0  0  0  0  0  0  0  0  0  0  0  0
  1  2  1  0
  2  3  1  0
  3  4  1  0
  4  5  1  0
  5  6  1  0
  6  7  2  0
  6  8  1  0
  8  9  2  0
  9 10  1  0
 10 11  2  0
 11 12  1  0
 12 13  1  0
 13 14  1  0
 14 15  2  0
 15 16  1  0
  2 17  1  0
 17 18  1  0
 18 19  2  0
 18 20  1  0
 20 21  1  0
 21 22  2  0
 22 23  1  0
 23 24  1  0
 16  8  1  0
 24 20  2  0
 16 12  2  0
  1 25  1  0
  1 26  1  0
  1 27  1  0
  2 28  1  0
  3 29  1  0
  3 30  1  0
  4 31  1  0
  4 32  1  0
  5 33  1  0
  9 34  1  0
 10 35  1  0
 11 36  1  0
 13 37  1  0
 14 38  1  0
 15 39  1  0
 17 40  1  0
 21 41  1  0
 22 42  1  0
 23 43  1  0
M  END
>  <Energy>  (129) 
549.44840578401568

>  <compound_id>  (129) 
30250

>  <target_id>  (129) 
1

>  <reference_id>  (129) 
93

>  <inspiration_ids>  (129) 
[93, 99]

>  <energy_score>  (129) 
474.5790197245747

>  <distance_score>  (129) 
6.651852059366446

>  <path>  (129) 
/opt/xchem-fragalysis-2/maxwin/BulkDock/SCRATCH/511023/C30250-P93/C30250-P93.minimised.mol

>  <scratch_subdir>  (129) 
/opt/xchem-fragalysis-2/maxwin/BulkDock/SCRATCH/511023/C30250-P93

>  <fragmenstein_runtime>  (129) 
14.51917314529419

>  <fragmenstein_outcome>  (129) 
too moved

>  <fragmenstein_mode>  (129) 
expansion

>  <fragmenstein_error>  (129) 


$$$$
C30250-P99
     RDKit          3D

 43 45  0  0  0  0  0  0  0  0999 V2000
    3.4991    3.5047    7.1201 C   0  0  0  0  0  0  0  0  0  0  0  0
    2.7375    3.3063    8.4143 C   0  0  0  0  0  0  0  0  0  0  0  0
    3.7065    3.4110    9.7373 C   0  0  0  0  0  0  0  0  0  0  0  0
    3.8050    4.8016   10.4871 C   0  0  0  0  0  0  0  0  0  0  0  0
    4.6420    4.8020   11.7361 N   0  0  0  0  0  0  0  0  0  0  0  0
    5.6481    5.7704   12.2290 C   0  0  0  0  0  0  0  0  0  0  0  0
    6.1026    6.7560   11.7149 O   0  0  0  0  0  0  0  0  0  0  0  0
    6.2856    5.4333   13.5840 C   0  0  0  0  0  0  0  0  0  0  0  0
    5.4658    5.1908   14.6994 C   0  0  0  0  0  0  0  0  0  0  0  0
    5.9830    4.6650   15.8924 C   0  0  0  0  0  0  0  0  0  0  0  0
    7.3361    4.3547   16.0352 C   0  0  0  0  0  0  0  0  0  0  0  0
    8.1717    4.6272   14.9507 C   0  0  0  0  0  0  0  0  0  0  0  0
    9.5280    4.4001   14.8302 N   0  0  0  0  0  0  0  0  0  0  0  0
    9.9519    4.7816   13.5887 C   0  0  0  0  0  0  0  0  0  0  0  0
    8.8622    5.2975   12.9171 C   0  0  0  0  0  0  0  0  0  0  0  0
    7.7003    5.1862   13.7444 C   0  0  0  0  0  0  0  0  0  0  0  0
    1.8336    2.1014    8.3407 N   0  0  0  0  0  0  0  0  0  0  0  0
    1.6945    0.7536    9.2967 C   0  0  0  0  0  0  0  0  0  0  0  0
    2.4730    0.5960   10.1837 O   0  0  0  0  0  0  0  0  0  0  0  0
    0.2190   -0.7220    9.3749 C   0  0  0  0  0  0  0  0  0  0  0  0
   -1.6004   -0.4730    8.3981 C   0  0  0  0  0  0  0  0  0  0  0  0
   -2.7372   -1.1038    8.6099 C   0  0  0  0  0  0  0  0  0  0  0  0
   -1.8203   -1.9824    8.4609 N   0  0  0  0  0  0  0  0  0  0  0  0
    0.0033   -2.0159    8.8766 N   0  0  0  0  0  0  0  0  0  0  0  0
    3.8469    4.5385    7.0522 H   0  0  0  0  0  0  0  0  0  0  0  0
    2.8667    3.3153    6.2470 H   0  0  0  0  0  0  0  0  0  0  0  0
    4.3643    2.8408    7.0628 H   0  0  0  0  0  0  0  0  0  0  0  0
    2.0215    4.1326    8.5082 H   0  0  0  0  0  0  0  0  0  0  0  0
    3.3492    2.7072   10.4908 H   0  0  0  0  0  0  0  0  0  0  0  0
    4.7112    3.0853    9.4546 H   0  0  0  0  0  0  0  0  0  0  0  0
    4.1493    5.5922    9.8198 H   0  0  0  0  0  0  0  0  0  0  0  0
    2.7986    5.0809   10.8184 H   0  0  0  0  0  0  0  0  0  0  0  0
    4.4338    4.1331   12.4721 H   0  0  0  0  0  0  0  0  0  0  0  0
    4.3929    5.3613   14.6225 H   0  0  0  0  0  0  0  0  0  0  0  0
    5.2992    4.4711   16.7170 H   0  0  0  0  0  0  0  0  0  0  0  0
    7.7163    3.9333   16.9602 H   0  0  0  0  0  0  0  0  0  0  0  0
   10.1126    4.0294   15.5688 H   0  0  0  0  0  0  0  0  0  0  0  0
   10.9923    4.7008   13.3037 H   0  0  0  0  0  0  0  0  0  0  0  0
    8.8791    5.7390   11.9300 H   0  0  0  0  0  0  0  0  0  0  0  0
    1.0851    2.1112    7.7396 H   0  0  0  0  0  0  0  0  0  0  0  0
   -1.9638    0.4686    7.9390 H   0  0  0  0  0  0  0  0  0  0  0  0
   -3.7746   -1.0515    8.3148 H   0  0  0  0  0  0  0  0  0  0  0  0
   -2.0924   -2.7462    7.8498 H   0  0  0  0  0  0  0  0  0  0  0  0
  1  2  1  0
  2  3  1  0
  3  4  1  0
  4  5  1  0
  5  6  1  0
  6  7  2  0
  6  8  1  0
  8  9  2  0
  9 10  1  0
 10 11  2  0
 11 12  1  0
 12 13  1  0
 13 14  1  0
 14 15  2  0
 15 16  1  0
  2 17  1  0
 17 18  1  0
 18 19  2  0
 18 20  1  0
 20 21  1  0
 21 22  2  0
 22 23  1  0
 23 24  1  0
 16  8  1  0
 24 20  2  0
 16 12  2  0
  1 25  1  0
  1 26  1  0
  1 27  1  0
  2 28  1  0
  3 29  1  0
  3 30  1  0
  4 31  1  0
  4 32  1  0
  5 33  1  0
  9 34  1  0
 10 35  1  0
 11 36  1  0
 13 37  1  0
 14 38  1  0
 15 39  1  0
 17 40  1  0
 21 41  1  0
 22 42  1  0
 23 43  1  0
M  END
>  <Energy>  (130) 
532.84034697824984

>  <compound_id>  (130) 
30250

>  <target_id>  (130) 
1

>  <reference_id>  (130) 
99

>  <inspiration_ids>  (130) 
[93, 99]

>  <energy_score>  (130) 
457.9709609188169

>  <distance_score>  (130) 
9.551603555082202

>  <path>  (130) 
/opt/xchem-fragalysis-2/maxwin/BulkDock/SCRATCH/511023/C30250-P99/C30250-P99.minimised.mol

>  <scratch_subdir>  (130) 
/opt/xchem-fragalysis-2/maxwin/BulkDock/SCRATCH/511023/C30250-P99

>  <fragmenstein_runtime>  (130) 
13.354968786239624

>  <fragmenstein_outcome>  (130) 
too moved

>  <fragmenstein_mode>  (130) 
expansion

>  <fragmenstein_error>  (130) 


$$$$
C30251-P93
     RDKit          3D

 46 48  0  0  0  0  0  0  0  0999 V2000
   13.1362   -8.0373    9.2204 C   0  0  0  0  0  0  0  0  0  0  0  0
   12.6873   -6.8161    8.4330 C   0  0  0  0  0  0  0  0  0  0  0  0
   13.0496   -5.4832    9.1330 C   0  0  0  0  0  0  0  0  0  0  0  0
   14.5201   -5.0183    9.1005 C   0  0  0  0  0  0  0  0  0  0  0  0
   14.9158   -4.1651   10.2316 N   0  0  0  0  0  0  0  0  0  0  0  0
   15.2209   -2.7616   10.2943 C   0  0  0  0  0  0  0  0  0  0  0  0
   15.1545   -1.9092    9.4570 O   0  0  0  0  0  0  0  0  0  0  0  0
   15.8075   -2.3678   11.6197 C   0  0  0  0  0  0  0  0  0  0  0  0
   17.2104   -2.3696   11.6756 C   0  0  0  0  0  0  0  0  0  0  0  0
   17.8836   -2.1266   12.8684 C   0  0  0  0  0  0  0  0  0  0  0  0
   17.1879   -1.8659   14.0466 C   0  0  0  0  0  0  0  0  0  0  0  0
   15.7896   -1.8246   13.9920 C   0  0  0  0  0  0  0  0  0  0  0  0
   15.0769   -2.0538   12.7991 C   0  0  0  0  0  0  0  0  0  0  0  0
   13.7066   -1.9217   13.1571 C   0  0  0  0  0  0  0  0  0  0  0  0
   13.6091   -1.6360   14.5007 C   0  0  0  0  0  0  0  0  0  0  0  0
   14.8762   -1.5885   14.9996 N   0  0  0  0  0  0  0  0  0  0  0  0
   15.2110   -1.3339   16.3833 C   0  0  0  0  0  0  0  0  0  0  0  0
   11.2426   -6.9068    8.1634 N   0  0  0  0  0  0  0  0  0  0  0  0
   10.5223   -7.0553    6.9298 C   0  0  0  0  0  0  0  0  0  0  0  0
   10.9086   -7.0647    5.7963 O   0  0  0  0  0  0  0  0  0  0  0  0
    9.0317   -7.1415    7.1362 C   0  0  0  0  0  0  0  0  0  0  0  0
    8.0489   -6.8097    6.1542 C   0  0  0  0  0  0  0  0  0  0  0  0
    6.8435   -6.8707    6.7984 C   0  0  0  0  0  0  0  0  0  0  0  0
    7.1105   -7.3215    8.0460 N   0  0  0  0  0  0  0  0  0  0  0  0
    8.4214   -7.5191    8.2831 N   0  0  0  0  0  0  0  0  0  0  0  0
   12.6117   -8.0971   10.1780 H   0  0  0  0  0  0  0  0  0  0  0  0
   14.2129   -8.0193    9.4104 H   0  0  0  0  0  0  0  0  0  0  0  0
   12.9085   -8.9566    8.6695 H   0  0  0  0  0  0  0  0  0  0  0  0
   13.1813   -6.8350    7.4539 H   0  0  0  0  0  0  0  0  0  0  0  0
   12.4967   -4.7470    8.5500 H   0  0  0  0  0  0  0  0  0  0  0  0
   12.6657   -5.5042   10.1585 H   0  0  0  0  0  0  0  0  0  0  0  0
   14.7201   -4.4676    8.1753 H   0  0  0  0  0  0  0  0  0  0  0  0
   15.1926   -5.8806    9.1330 H   0  0  0  0  0  0  0  0  0  0  0  0
   15.1691   -4.5968   11.1105 H   0  0  0  0  0  0  0  0  0  0  0  0
   17.7810   -2.5814   10.7733 H   0  0  0  0  0  0  0  0  0  0  0  0
   18.9713   -2.1456   12.8825 H   0  0  0  0  0  0  0  0  0  0  0  0
   17.7276   -1.6876   14.9715 H   0  0  0  0  0  0  0  0  0  0  0  0
   12.8606   -2.0654   12.5132 H   0  0  0  0  0  0  0  0  0  0  0  0
   12.7404   -1.4860   15.1269 H   0  0  0  0  0  0  0  0  0  0  0  0
   15.8241   -0.4304   16.4305 H   0  0  0  0  0  0  0  0  0  0  0  0
   14.2942   -1.1887   16.9610 H   0  0  0  0  0  0  0  0  0  0  0  0
   15.7585   -2.1966   16.7713 H   0  0  0  0  0  0  0  0  0  0  0  0
   10.5711   -6.8635    8.9388 H   0  0  0  0  0  0  0  0  0  0  0  0
    8.2343   -6.4633    5.1470 H   0  0  0  0  0  0  0  0  0  0  0  0
    5.8697   -6.5696    6.4703 H   0  0  0  0  0  0  0  0  0  0  0  0
    6.4642   -7.5012    8.8041 H   0  0  0  0  0  0  0  0  0  0  0  0
  1  2  1  0
  2  3  1  0
  3  4  1  0
  4  5  1  0
  5  6  1  0
  6  7  2  0
  6  8  1  0
  8  9  2  0
  9 10  1  0
 10 11  2  0
 11 12  1  0
 12 13  2  0
 13 14  1  0
 14 15  2  0
 15 16  1  0
 16 17  1  0
  2 18  1  0
 18 19  1  0
 19 20  2  0
 19 21  1  0
 21 22  1  0
 22 23  2  0
 23 24  1  0
 24 25  1  0
 13  8  1  0
 25 21  2  0
 16 12  1  0
  1 26  1  0
  1 27  1  0
  1 28  1  0
  2 29  1  0
  3 30  1  0
  3 31  1  0
  4 32  1  0
  4 33  1  0
  5 34  1  0
  9 35  1  0
 10 36  1  0
 11 37  1  0
 14 38  1  0
 15 39  1  0
 17 40  1  0
 17 41  1  0
 17 42  1  0
 18 43  1  0
 22 44  1  0
 23 45  1  0
 24 46  1  0
M  END
>  <Energy>  (131) 
65.355885198639953

>  <compound_id>  (131) 
30251

>  <target_id>  (131) 
1

>  <reference_id>  (131) 
93

>  <inspiration_ids>  (131) 
[93, 99]

>  <energy_score>  (131) 
-14.745542351497647

>  <distance_score>  (131) 
10.556755659672795

>  <path>  (131) 
/opt/xchem-fragalysis-2/maxwin/BulkDock/SCRATCH/511023/C30251-P93/C30251-P93.minimised.mol

>  <scratch_subdir>  (131) 
/opt/xchem-fragalysis-2/maxwin/BulkDock/SCRATCH/511023/C30251-P93

>  <fragmenstein_runtime>  (131) 
26.261035919189453

>  <fragmenstein_outcome>  (131) 
too moved

>  <fragmenstein_mode>  (131) 
expansion

>  <fragmenstein_error>  (131) 


$$$$
C30251-P99
     RDKit          3D

 46 48  0  0  0  0  0  0  0  0999 V2000
   12.3539    5.2957    6.5570 C   0  0  0  0  0  0  0  0  0  0  0  0
   11.9845    3.8817    6.9864 C   0  0  0  0  0  0  0  0  0  0  0  0
   11.9646    3.7574    8.5506 C   0  0  0  0  0  0  0  0  0  0  0  0
   13.2840    3.7089    9.3425 C   0  0  0  0  0  0  0  0  0  0  0  0
   13.1099    2.8903   10.5563 N   0  0  0  0  0  0  0  0  0  0  0  0
   13.8988    2.8031   11.7586 C   0  0  0  0  0  0  0  0  0  0  0  0
   14.8527    3.4302   12.1126 O   0  0  0  0  0  0  0  0  0  0  0  0
   13.3879    1.7340   12.7074 C   0  0  0  0  0  0  0  0  0  0  0  0
   12.0076    1.6148   12.9665 C   0  0  0  0  0  0  0  0  0  0  0  0
   11.5095    0.6178   13.8066 C   0  0  0  0  0  0  0  0  0  0  0  0
   12.3619   -0.2930   14.4300 C   0  0  0  0  0  0  0  0  0  0  0  0
   13.7406   -0.1505   14.2195 C   0  0  0  0  0  0  0  0  0  0  0  0
   14.2742    0.8472   13.3830 C   0  0  0  0  0  0  0  0  0  0  0  0
   15.6909    0.6817   13.4286 C   0  0  0  0  0  0  0  0  0  0  0  0
   15.9820   -0.3757   14.2616 C   0  0  0  0  0  0  0  0  0  0  0  0
   14.7996   -0.8802   14.7259 N   0  0  0  0  0  0  0  0  0  0  0  0
   14.6806   -2.0143   15.6170 C   0  0  0  0  0  0  0  0  0  0  0  0
   10.6862    3.4847    6.3550 N   0  0  0  0  0  0  0  0  0  0  0  0
   10.3607    2.3947    5.4544 C   0  0  0  0  0  0  0  0  0  0  0  0
   11.0651    1.5839    4.9259 O   0  0  0  0  0  0  0  0  0  0  0  0
    8.8500    2.2305    5.2105 C   0  0  0  0  0  0  0  0  0  0  0  0
    8.2527    1.4600    4.1591 C   0  0  0  0  0  0  0  0  0  0  0  0
    6.9057    1.3959    4.4132 C   0  0  0  0  0  0  0  0  0  0  0  0
    6.7223    2.0824    5.5700 N   0  0  0  0  0  0  0  0  0  0  0  0
    7.8628    2.7250    6.0013 N   0  0  0  0  0  0  0  0  0  0  0  0
   11.6073    6.0202    6.9002 H   0  0  0  0  0  0  0  0  0  0  0  0
   13.3280    5.5880    6.9617 H   0  0  0  0  0  0  0  0  0  0  0  0
   12.4044    5.3682    5.4651 H   0  0  0  0  0  0  0  0  0  0  0  0
   12.7337    3.1903    6.5867 H   0  0  0  0  0  0  0  0  0  0  0  0
   11.3417    4.5574    8.9676 H   0  0  0  0  0  0  0  0  0  0  0  0
   11.4642    2.8200    8.7776 H   0  0  0  0  0  0  0  0  0  0  0  0
   14.0845    3.2437    8.7601 H   0  0  0  0  0  0  0  0  0  0  0  0
   13.6183    4.7071    9.6403 H   0  0  0  0  0  0  0  0  0  0  0  0
   12.4266    2.1450   10.5554 H   0  0  0  0  0  0  0  0  0  0  0  0
   11.3113    2.3203   12.5214 H   0  0  0  0  0  0  0  0  0  0  0  0
   10.4375    0.5393   13.9745 H   0  0  0  0  0  0  0  0  0  0  0  0
   11.9633   -1.0764   15.0666 H   0  0  0  0  0  0  0  0  0  0  0  0
   16.4204    1.2884   12.9052 H   0  0  0  0  0  0  0  0  0  0  0  0
   16.9339   -0.8024   14.5503 H   0  0  0  0  0  0  0  0  0  0  0  0
   14.0990   -2.7901   15.1122 H   0  0  0  0  0  0  0  0  0  0  0  0
   14.1785   -1.6845   16.5302 H   0  0  0  0  0  0  0  0  0  0  0  0
   15.6757   -2.3964   15.8588 H   0  0  0  0  0  0  0  0  0  0  0  0
    9.8483    4.0203    6.5406 H   0  0  0  0  0  0  0  0  0  0  0  0
    8.7799    0.9713    3.3505 H   0  0  0  0  0  0  0  0  0  0  0  0
    6.0896    0.8952    3.9146 H   0  0  0  0  0  0  0  0  0  0  0  0
    5.8515    2.1688    6.0978 H   0  0  0  0  0  0  0  0  0  0  0  0
  1  2  1  0
  2  3  1  0
  3  4  1  0
  4  5  1  0
  5  6  1  0
  6  7  2  0
  6  8  1  0
  8  9  2  0
  9 10  1  0
 10 11  2  0
 11 12  1  0
 12 13  2  0
 13 14  1  0
 14 15  2  0
 15 16  1  0
 16 17  1  0
  2 18  1  0
 18 19  1  0
 19 20  2  0
 19 21  1  0
 21 22  1  0
 22 23  2  0
 23 24  1  0
 24 25  1  0
 13  8  1  0
 25 21  2  0
 16 12  1  0
  1 26  1  0
  1 27  1  0
  1 28  1  0
  2 29  1  0
  3 30  1  0
  3 31  1  0
  4 32  1  0
  4 33  1  0
  5 34  1  0
  9 35  1  0
 10 36  1  0
 11 37  1  0
 14 38  1  0
 15 39  1  0
 17 40  1  0
 17 41  1  0
 17 42  1  0
 18 43  1  0
 22 44  1  0
 23 45  1  0
 24 46  1  0
M  END
>  <Energy>  (132) 
67.581562077504955

>  <compound_id>  (132) 
30251

>  <target_id>  (132) 
1

>  <reference_id>  (132) 
99

>  <inspiration_ids>  (132) 
[93, 99]

>  <energy_score>  (132) 
-12.519865472634251

>  <distance_score>  (132) 
10.337952532680815

>  <path>  (132) 
/opt/xchem-fragalysis-2/maxwin/BulkDock/SCRATCH/511023/C30251-P99/C30251-P99.minimised.mol

>  <scratch_subdir>  (132) 
/opt/xchem-fragalysis-2/maxwin/BulkDock/SCRATCH/511023/C30251-P99

>  <fragmenstein_runtime>  (132) 
16.906227588653564

>  <fragmenstein_outcome>  (132) 
too moved

>  <fragmenstein_mode>  (132) 
expansion

>  <fragmenstein_error>  (132) 


$$$$
C30252-P93
     RDKit          3D

 50 52  0  0  0  0  0  0  0  0999 V2000
    8.4889   -2.6106   14.9822 C   0  0  0  0  0  0  0  0  0  0  0  0
    7.6913   -1.4061   14.9292 C   0  0  0  0  0  0  0  0  0  0  0  0
    7.8669   -0.4030   16.0463 C   0  0  0  0  0  0  0  0  0  0  0  0
    6.3480   -1.7719   14.1286 C   0  0  0  0  0  0  0  0  0  0  0  0
    5.8500   -0.6402   12.6765 C   0  0  0  0  0  0  0  0  0  0  0  0
    7.5060   -0.6405   12.2301 C   0  0  0  0  0  0  0  0  0  0  0  0
    8.7276    0.3181   12.8713 N   0  0  0  0  0  0  0  0  0  0  0  0
   10.2279    0.3512   13.1734 C   0  0  0  0  0  0  0  0  0  0  0  0
   11.0677   -0.1725   14.3581 C   0  0  0  0  0  0  0  0  0  0  0  0
   11.6385   -1.4627   14.3440 C   0  0  0  0  0  0  0  0  0  0  0  0
   12.6177   -1.8946   15.2509 C   0  0  0  0  0  0  0  0  0  0  0  0
   13.1694   -0.9653   16.1330 C   0  0  0  0  0  0  0  0  0  0  0  0
   14.2272   -1.0159   17.0804 C   0  0  0  0  0  0  0  0  0  0  0  0
   14.3631    0.2428   17.6143 C   0  0  0  0  0  0  0  0  0  0  0  0
   13.4263    1.0508   17.0230 N   0  0  0  0  0  0  0  0  0  0  0  0
   12.6599    0.3303   16.1294 C   0  0  0  0  0  0  0  0  0  0  0  0
   11.5849    0.7353   15.3057 C   0  0  0  0  0  0  0  0  0  0  0  0
    4.4029   -0.6677   11.3556 N   0  0  0  0  0  0  0  0  0  0  0  0
    2.4708   -0.6419   11.5432 C   0  0  0  0  0  0  0  0  0  0  0  0
    1.8142   -0.4903   12.6049 O   0  0  0  0  0  0  0  0  0  0  0  0
    1.2353   -1.0681   10.0614 C   0  0  0  0  0  0  0  0  0  0  0  0
   -0.0785   -1.0816   10.5016 C   0  0  0  0  0  0  0  0  0  0  0  0
   -1.5289   -0.8034    9.3867 C   0  0  0  0  0  0  0  0  0  0  0  0
   -1.2483   -1.6775    8.4517 N   0  0  0  0  0  0  0  0  0  0  0  0
    0.5842   -2.2161    8.9616 N   0  0  0  0  0  0  0  0  0  0  0  0
    9.5260   -2.4537   15.2647 H   0  0  0  0  0  0  0  0  0  0  0  0
    8.4932   -2.9478   13.9897 H   0  0  0  0  0  0  0  0  0  0  0  0
    7.9343   -3.3598   15.4903 H   0  0  0  0  0  0  0  0  0  0  0  0
    8.3386   -0.9172   14.2769 H   0  0  0  0  0  0  0  0  0  0  0  0
    8.8185   -0.5421   16.5492 H   0  0  0  0  0  0  0  0  0  0  0  0
    7.0370   -0.4880   16.7202 H   0  0  0  0  0  0  0  0  0  0  0  0
    7.9401    0.6403   15.7326 H   0  0  0  0  0  0  0  0  0  0  0  0
    6.5470   -2.7020   13.6376 H   0  0  0  0  0  0  0  0  0  0  0  0
    5.5784   -2.1845   14.7745 H   0  0  0  0  0  0  0  0  0  0  0  0
    5.9253   -1.6215   12.2486 H   0  0  0  0  0  0  0  0  0  0  0  0
    7.3791   -0.5799   11.1662 H   0  0  0  0  0  0  0  0  0  0  0  0
    7.6981   -1.6781   12.3816 H   0  0  0  0  0  0  0  0  0  0  0  0
    8.8555    0.7166   11.9362 H   0  0  0  0  0  0  0  0  0  0  0  0
   10.3725    1.4411   13.2471 H   0  0  0  0  0  0  0  0  0  0  0  0
   10.8309    0.1462   12.2951 H   0  0  0  0  0  0  0  0  0  0  0  0
   11.3729   -2.1887   13.5840 H   0  0  0  0  0  0  0  0  0  0  0  0
   12.9988   -2.9088   15.2034 H   0  0  0  0  0  0  0  0  0  0  0  0
   14.8333   -1.8776   17.3279 H   0  0  0  0  0  0  0  0  0  0  0  0
   15.0459    0.6367   18.3554 H   0  0  0  0  0  0  0  0  0  0  0  0
   13.2983    2.0334   17.2246 H   0  0  0  0  0  0  0  0  0  0  0  0
   11.2451    1.7673   15.3258 H   0  0  0  0  0  0  0  0  0  0  0  0
    4.6401   -0.7097   10.4569 H   0  0  0  0  0  0  0  0  0  0  0  0
   -0.2455   -0.6704   11.5501 H   0  0  0  0  0  0  0  0  0  0  0  0
   -2.4339   -0.2010    9.4145 H   0  0  0  0  0  0  0  0  0  0  0  0
   -1.7140   -2.0568    7.6267 H   0  0  0  0  0  0  0  0  0  0  0  0
  1  2  1  0
  2  3  1  0
  2  4  1  0
  4  5  1  0
  5  6  1  0
  6  7  1  0
  7  8  1  0
  8  9  1  0
  9 10  2  0
 10 11  1  0
 11 12  2  0
 12 13  1  0
 13 14  2  0
 14 15  1  0
 15 16  1  0
 16 17  2  0
  5 18  1  0
 18 19  1  0
 19 20  2  0
 19 21  1  0
 21 22  1  0
 22 23  2  0
 23 24  1  0
 24 25  1  0
 17  9  1  0
 25 21  2  0
 16 12  1  0
  1 26  1  0
  1 27  1  0
  1 28  1  0
  2 29  1  0
  3 30  1  0
  3 31  1  0
  3 32  1  0
  4 33  1  0
  4 34  1  0
  5 35  1  0
  6 36  1  0
  6 37  1  0
  7 38  1  0
  8 39  1  0
  8 40  1  0
 10 41  1  0
 11 42  1  0
 13 43  1  0
 14 44  1  0
 15 45  1  0
 17 46  1  0
 18 47  1  0
 22 48  1  0
 23 49  1  0
 24 50  1  0
M  END
>  <Energy>  (133) 
872.95877406653312

>  <compound_id>  (133) 
30252

>  <target_id>  (133) 
1

>  <reference_id>  (133) 
93

>  <inspiration_ids>  (133) 
[93, 99]

>  <energy_score>  (133) 
766.527970687968

>  <distance_score>  (133) 
6.235763700345563

>  <path>  (133) 
/opt/xchem-fragalysis-2/maxwin/BulkDock/SCRATCH/511023/C30252-P93/C30252-P93.minimised.mol

>  <scratch_subdir>  (133) 
/opt/xchem-fragalysis-2/maxwin/BulkDock/SCRATCH/511023/C30252-P93

>  <fragmenstein_runtime>  (133) 
13.895806312561035

>  <fragmenstein_outcome>  (133) 
too moved

>  <fragmenstein_mode>  (133) 
expansion

>  <fragmenstein_error>  (133) 


$$$$
C30252-P99
     RDKit          3D

 50 52  0  0  0  0  0  0  0  0999 V2000
    8.5758    7.9080   11.1795 C   0  0  0  0  0  0  0  0  0  0  0  0
    9.7077    7.4013   12.0756 C   0  0  0  0  0  0  0  0  0  0  0  0
   10.6208    8.5815   12.4301 C   0  0  0  0  0  0  0  0  0  0  0  0
    9.1905    6.7445   13.3730 C   0  0  0  0  0  0  0  0  0  0  0  0
    8.6606    5.2988   13.2644 C   0  0  0  0  0  0  0  0  0  0  0  0
    9.7901    4.2580   12.8311 C   0  0  0  0  0  0  0  0  0  0  0  0
   11.0406    4.1324   13.6040 N   0  0  0  0  0  0  0  0  0  0  0  0
   10.9126    3.3085   14.8173 C   0  0  0  0  0  0  0  0  0  0  0  0
   11.3267    1.8448   14.6910 C   0  0  0  0  0  0  0  0  0  0  0  0
   10.3664    0.8317   14.8109 C   0  0  0  0  0  0  0  0  0  0  0  0
   10.7308   -0.5230   14.9106 C   0  0  0  0  0  0  0  0  0  0  0  0
   12.0902   -0.8806   14.9190 C   0  0  0  0  0  0  0  0  0  0  0  0
   12.7968   -2.1055   15.0749 C   0  0  0  0  0  0  0  0  0  0  0  0
   14.1425   -1.8212   15.0307 C   0  0  0  0  0  0  0  0  0  0  0  0
   14.2766   -0.4732   14.8306 N   0  0  0  0  0  0  0  0  0  0  0  0
   13.0380    0.1280   14.7569 C   0  0  0  0  0  0  0  0  0  0  0  0
   12.6864    1.4827   14.5971 C   0  0  0  0  0  0  0  0  0  0  0  0
    7.3802    5.2224   12.4930 N   0  0  0  0  0  0  0  0  0  0  0  0
    6.0625    5.7662   12.7785 C   0  0  0  0  0  0  0  0  0  0  0  0
    5.6886    6.4800   13.6641 O   0  0  0  0  0  0  0  0  0  0  0  0
    5.0063    5.2225   11.8123 C   0  0  0  0  0  0  0  0  0  0  0  0
    3.5803    5.2542   11.9804 C   0  0  0  0  0  0  0  0  0  0  0  0
    3.0483    4.4704   10.9811 C   0  0  0  0  0  0  0  0  0  0  0  0
    4.1186    3.9988   10.2850 N   0  0  0  0  0  0  0  0  0  0  0  0
    5.3062    4.5026   10.7077 N   0  0  0  0  0  0  0  0  0  0  0  0
    8.9795    8.4339   10.3071 H   0  0  0  0  0  0  0  0  0  0  0  0
    7.9239    8.6046   11.7177 H   0  0  0  0  0  0  0  0  0  0  0  0
    7.9589    7.0919   10.8005 H   0  0  0  0  0  0  0  0  0  0  0  0
   10.3094    6.6858   11.5056 H   0  0  0  0  0  0  0  0  0  0  0  0
   11.0128    9.0575   11.5249 H   0  0  0  0  0  0  0  0  0  0  0  0
   10.0829    9.3410   13.0078 H   0  0  0  0  0  0  0  0  0  0  0  0
   11.4777    8.2460   13.0240 H   0  0  0  0  0  0  0  0  0  0  0  0
    8.4105    7.3823   13.8096 H   0  0  0  0  0  0  0  0  0  0  0  0
   10.0054    6.7334   14.1091 H   0  0  0  0  0  0  0  0  0  0  0  0
    8.3576    5.0152   14.2812 H   0  0  0  0  0  0  0  0  0  0  0  0
    9.3774    3.2551   12.7815 H   0  0  0  0  0  0  0  0  0  0  0  0
   10.0720    4.5010   11.8003 H   0  0  0  0  0  0  0  0  0  0  0  0
   11.7532    3.7014   13.0151 H   0  0  0  0  0  0  0  0  0  0  0  0
    9.9027    3.3831   15.2397 H   0  0  0  0  0  0  0  0  0  0  0  0
   11.5654    3.7587   15.5750 H   0  0  0  0  0  0  0  0  0  0  0  0
    9.3091    1.0853   14.8577 H   0  0  0  0  0  0  0  0  0  0  0  0
    9.9627   -1.2863   14.9886 H   0  0  0  0  0  0  0  0  0  0  0  0
   12.3646   -3.0875   15.2237 H   0  0  0  0  0  0  0  0  0  0  0  0
   15.0092   -2.4619   15.1228 H   0  0  0  0  0  0  0  0  0  0  0  0
   15.1557    0.0200   14.7658 H   0  0  0  0  0  0  0  0  0  0  0  0
   13.4558    2.2432   14.5071 H   0  0  0  0  0  0  0  0  0  0  0  0
    7.3471    4.7226   11.6102 H   0  0  0  0  0  0  0  0  0  0  0  0
    3.0430    5.7409   12.7826 H   0  0  0  0  0  0  0  0  0  0  0  0
    2.0360    4.1791   10.7423 H   0  0  0  0  0  0  0  0  0  0  0  0
    4.1247    3.3328    9.5171 H   0  0  0  0  0  0  0  0  0  0  0  0
  1  2  1  0
  2  3  1  0
  2  4  1  0
  4  5  1  0
  5  6  1  0
  6  7  1  0
  7  8  1  0
  8  9  1  0
  9 10  2  0
 10 11  1  0
 11 12  2  0
 12 13  1  0
 13 14  2  0
 14 15  1  0
 15 16  1  0
 16 17  2  0
  5 18  1  0
 18 19  1  0
 19 20  2  0
 19 21  1  0
 21 22  1  0
 22 23  2  0
 23 24  1  0
 24 25  1  0
 17  9  1  0
 25 21  2  0
 16 12  1  0
  1 26  1  0
  1 27  1  0
  1 28  1  0
  2 29  1  0
  3 30  1  0
  3 31  1  0
  3 32  1  0
  4 33  1  0
  4 34  1  0
  5 35  1  0
  6 36  1  0
  6 37  1  0
  7 38  1  0
  8 39  1  0
  8 40  1  0
 10 41  1  0
 11 42  1  0
 13 43  1  0
 14 44  1  0
 15 45  1  0
 17 46  1  0
 18 47  1  0
 22 48  1  0
 23 49  1  0
 24 50  1  0
M  END
>  <Energy>  (134) 
76.775179903618394

>  <compound_id>  (134) 
30252

>  <target_id>  (134) 
1

>  <reference_id>  (134) 
99

>  <inspiration_ids>  (134) 
[93, 99]

>  <energy_score>  (134) 
-29.655623474945287

>  <distance_score>  (134) 
9.307215339037977

>  <path>  (134) 
/opt/xchem-fragalysis-2/maxwin/BulkDock/SCRATCH/511023/C30252-P99/C30252-P99.minimised.mol

>  <scratch_subdir>  (134) 
/opt/xchem-fragalysis-2/maxwin/BulkDock/SCRATCH/511023/C30252-P99

>  <fragmenstein_runtime>  (134) 
11.173719644546509

>  <fragmenstein_outcome>  (134) 
too moved

>  <fragmenstein_mode>  (134) 
expansion

>  <fragmenstein_error>  (134) 


$$$$
C30253-P93
     RDKit          3D

 43 45  0  0  0  0  0  0  0  0999 V2000
    2.8766    1.2505    7.1720 C   0  0  0  0  0  0  0  0  0  0  0  0
    2.0032   -0.3809    7.7500 C   0  0  0  0  0  0  0  0  0  0  0  0
    2.2075    1.0668    9.1827 C   0  0  0  0  0  0  0  0  0  0  0  0
    3.5881    2.0754    9.5347 C   0  0  0  0  0  0  0  0  0  0  0  0
    4.0766    2.7678   10.7248 N   0  0  0  0  0  0  0  0  0  0  0  0
    3.6207    3.9758   11.3774 C   0  0  0  0  0  0  0  0  0  0  0  0
    2.6733    4.6722   11.1573 O   0  0  0  0  0  0  0  0  0  0  0  0
    4.6202    4.4330   12.4463 C   0  0  0  0  0  0  0  0  0  0  0  0
    5.9095    4.7402   11.9495 C   0  0  0  0  0  0  0  0  0  0  0  0
    6.9633    5.2489   12.7178 C   0  0  0  0  0  0  0  0  0  0  0  0
    6.7934    5.4299   14.0804 C   0  0  0  0  0  0  0  0  0  0  0  0
    5.5321    5.1522   14.6359 C   0  0  0  0  0  0  0  0  0  0  0  0
    5.0638    5.1863   15.9762 C   0  0  0  0  0  0  0  0  0  0  0  0
    3.7365    4.8385   15.9501 C   0  0  0  0  0  0  0  0  0  0  0  0
    3.3746    4.6124   14.6418 N   0  0  0  0  0  0  0  0  0  0  0  0
    4.4641    4.7299   13.8085 C   0  0  0  0  0  0  0  0  0  0  0  0
    0.3192   -1.4186    7.0135 N   0  0  0  0  0  0  0  0  0  0  0  0
   -1.5967   -1.3379    7.6137 C   0  0  0  0  0  0  0  0  0  0  0  0
   -1.8198   -0.5236    8.4319 O   0  0  0  0  0  0  0  0  0  0  0  0
   -2.9625   -2.1986    7.3901 C   0  0  0  0  0  0  0  0  0  0  0  0
   -4.1686   -1.3330    7.5435 C   0  0  0  0  0  0  0  0  0  0  0  0
   -5.2763   -2.0633    7.2368 C   0  0  0  0  0  0  0  0  0  0  0  0
   -4.7679   -3.2941    7.0184 N   0  0  0  0  0  0  0  0  0  0  0  0
   -3.4638   -3.4476    7.4068 N   0  0  0  0  0  0  0  0  0  0  0  0
    3.7944    1.3094    7.7104 H   0  0  0  0  0  0  0  0  0  0  0  0
    2.3175    2.1851    7.3068 H   0  0  0  0  0  0  0  0  0  0  0  0
    3.4038    1.4472    6.2440 H   0  0  0  0  0  0  0  0  0  0  0  0
    2.7541   -1.1008    7.4523 H   0  0  0  0  0  0  0  0  0  0  0  0
    1.6185    1.9579    9.0837 H   0  0  0  0  0  0  0  0  0  0  0  0
    2.3454    0.5185   10.0679 H   0  0  0  0  0  0  0  0  0  0  0  0
    3.5560    2.9109    8.8219 H   0  0  0  0  0  0  0  0  0  0  0  0
    4.4723    1.4608    9.3371 H   0  0  0  0  0  0  0  0  0  0  0  0
    4.8715    2.3979   11.2307 H   0  0  0  0  0  0  0  0  0  0  0  0
    6.0708    4.5667   10.8975 H   0  0  0  0  0  0  0  0  0  0  0  0
    7.9118    5.5048   12.2578 H   0  0  0  0  0  0  0  0  0  0  0  0
    7.6042    5.7951   14.7024 H   0  0  0  0  0  0  0  0  0  0  0  0
    5.6323    5.4430   16.8589 H   0  0  0  0  0  0  0  0  0  0  0  0
    3.0066    4.7305   16.7399 H   0  0  0  0  0  0  0  0  0  0  0  0
    2.4696    4.2831   14.3344 H   0  0  0  0  0  0  0  0  0  0  0  0
    0.4256   -2.1779    6.3960 H   0  0  0  0  0  0  0  0  0  0  0  0
   -4.1603   -0.2845    7.7952 H   0  0  0  0  0  0  0  0  0  0  0  0
   -6.3281   -1.8304    7.1534 H   0  0  0  0  0  0  0  0  0  0  0  0
   -5.2939   -4.0960    6.7040 H   0  0  0  0  0  0  0  0  0  0  0  0
  1  2  1  0
  2  3  1  0
  3  4  1  0
  4  5  1  0
  5  6  1  0
  6  7  2  0
  6  8  1  0
  8  9  2  0
  9 10  1  0
 10 11  2  0
 11 12  1  0
 12 13  1  0
 13 14  2  0
 14 15  1  0
 15 16  1  0
  2 17  1  0
 17 18  1  0
 18 19  2  0
 18 20  1  0
 20 21  1  0
 21 22  2  0
 22 23  1  0
 23 24  1  0
 16  8  1  0
 24 20  2  0
 16 12  2  0
  1 25  1  0
  1 26  1  0
  1 27  1  0
  2 28  1  0
  3 29  1  0
  3 30  1  0
  4 31  1  0
  4 32  1  0
  5 33  1  0
  9 34  1  0
 10 35  1  0
 11 36  1  0
 13 37  1  0
 14 38  1  0
 15 39  1  0
 17 40  1  0
 21 41  1  0
 22 42  1  0
 23 43  1  0
M  END
>  <Energy>  (135) 
620.72270724158204

>  <compound_id>  (135) 
30253

>  <target_id>  (135) 
1

>  <reference_id>  (135) 
93

>  <inspiration_ids>  (135) 
[93, 99]

>  <energy_score>  (135) 
552.795900863563

>  <distance_score>  (135) 
10.213251817241686

>  <path>  (135) 
/opt/xchem-fragalysis-2/maxwin/BulkDock/SCRATCH/511023/C30253-P93/C30253-P93.minimised.mol

>  <scratch_subdir>  (135) 
/opt/xchem-fragalysis-2/maxwin/BulkDock/SCRATCH/511023/C30253-P93

>  <fragmenstein_runtime>  (135) 
14.102736949920654

>  <fragmenstein_outcome>  (135) 
too moved

>  <fragmenstein_mode>  (135) 
expansion

>  <fragmenstein_error>  (135) 


$$$$
C30253-P99
     RDKit          3D

 43 45  0  0  0  0  0  0  0  0999 V2000
    3.1656    1.1661   11.3811 C   0  0  0  0  0  0  0  0  0  0  0  0
    3.7888   -0.5578   11.2393 C   0  0  0  0  0  0  0  0  0  0  0  0
    5.5768   -0.8477   12.1127 C   0  0  0  0  0  0  0  0  0  0  0  0
    6.9560   -0.6210   11.8564 C   0  0  0  0  0  0  0  0  0  0  0  0
    7.7901   -0.3849   13.0502 N   0  0  0  0  0  0  0  0  0  0  0  0
    7.8717   -1.0897   14.2973 C   0  0  0  0  0  0  0  0  0  0  0  0
    7.2242   -1.9915   14.7227 O   0  0  0  0  0  0  0  0  0  0  0  0
    9.0627   -0.6246   15.1022 C   0  0  0  0  0  0  0  0  0  0  0  0
   10.0956   -1.6047   15.0880 C   0  0  0  0  0  0  0  0  0  0  0  0
   11.4516   -1.3046   15.1218 C   0  0  0  0  0  0  0  0  0  0  0  0
   11.8452    0.0233   15.1113 C   0  0  0  0  0  0  0  0  0  0  0  0
   10.8635    1.0293   15.2054 C   0  0  0  0  0  0  0  0  0  0  0  0
   10.9378    2.4435   15.2255 C   0  0  0  0  0  0  0  0  0  0  0  0
    9.6666    2.9214   15.4228 C   0  0  0  0  0  0  0  0  0  0  0  0
    8.8119    1.8549   15.4662 N   0  0  0  0  0  0  0  0  0  0  0  0
    9.5028    0.6883   15.2627 C   0  0  0  0  0  0  0  0  0  0  0  0
    1.9980   -1.3335   10.8337 N   0  0  0  0  0  0  0  0  0  0  0  0
    0.7855   -0.9657    9.4771 C   0  0  0  0  0  0  0  0  0  0  0  0
    1.2567   -0.1900    8.8085 O   0  0  0  0  0  0  0  0  0  0  0  0
   -1.1761   -1.2972    8.8335 C   0  0  0  0  0  0  0  0  0  0  0  0
   -2.6652   -0.4152    8.7081 C   0  0  0  0  0  0  0  0  0  0  0  0
   -3.6965   -1.0904    8.1013 C   0  0  0  0  0  0  0  0  0  0  0  0
   -2.9626   -2.0839    7.6319 N   0  0  0  0  0  0  0  0  0  0  0  0
   -1.6820   -1.6515    7.5167 N   0  0  0  0  0  0  0  0  0  0  0  0
    2.9615    1.5331   10.3732 H   0  0  0  0  0  0  0  0  0  0  0  0
    2.3128    1.1563   12.0611 H   0  0  0  0  0  0  0  0  0  0  0  0
    3.8572    1.8716   11.8437 H   0  0  0  0  0  0  0  0  0  0  0  0
    4.3172   -0.0247   10.4231 H   0  0  0  0  0  0  0  0  0  0  0  0
    5.6412   -1.9566   12.2451 H   0  0  0  0  0  0  0  0  0  0  0  0
    5.5836   -0.3658   13.0566 H   0  0  0  0  0  0  0  0  0  0  0  0
    7.2306   -0.0467   11.0085 H   0  0  0  0  0  0  0  0  0  0  0  0
    7.2880   -1.5691   11.4719 H   0  0  0  0  0  0  0  0  0  0  0  0
    8.5575    0.2710   12.9911 H   0  0  0  0  0  0  0  0  0  0  0  0
    9.8308   -2.6445   14.8982 H   0  0  0  0  0  0  0  0  0  0  0  0
   12.1900   -2.1005   15.0623 H   0  0  0  0  0  0  0  0  0  0  0  0
   12.8999    0.2820   15.0675 H   0  0  0  0  0  0  0  0  0  0  0  0
   11.8304    3.0503   15.1575 H   0  0  0  0  0  0  0  0  0  0  0  0
    9.2981    3.9315   15.5513 H   0  0  0  0  0  0  0  0  0  0  0  0
    7.8116    1.9229   15.6142 H   0  0  0  0  0  0  0  0  0  0  0  0
    1.5681   -1.9225   11.4388 H   0  0  0  0  0  0  0  0  0  0  0  0
   -2.9163    0.5330    9.1120 H   0  0  0  0  0  0  0  0  0  0  0  0
   -4.7541   -0.9287    7.9644 H   0  0  0  0  0  0  0  0  0  0  0  0
   -3.2551   -2.8979    7.1016 H   0  0  0  0  0  0  0  0  0  0  0  0
  1  2  1  0
  2  3  1  0
  3  4  1  0
  4  5  1  0
  5  6  1  0
  6  7  2  0
  6  8  1  0
  8  9  2  0
  9 10  1  0
 10 11  2  0
 11 12  1  0
 12 13  1  0
 13 14  2  0
 14 15  1  0
 15 16  1  0
  2 17  1  0
 17 18  1  0
 18 19  2  0
 18 20  1  0
 20 21  1  0
 21 22  2  0
 22 23  1  0
 23 24  1  0
 16  8  1  0
 24 20  2  0
 16 12  2  0
  1 25  1  0
  1 26  1  0
  1 27  1  0
  2 28  1  0
  3 29  1  0
  3 30  1  0
  4 31  1  0
  4 32  1  0
  5 33  1  0
  9 34  1  0
 10 35  1  0
 11 36  1  0
 13 37  1  0
 14 38  1  0
 15 39  1  0
 17 40  1  0
 21 41  1  0
 22 42  1  0
 23 43  1  0
M  END
>  <Energy>  (136) 
631.89266383019128

>  <compound_id>  (136) 
30253

>  <target_id>  (136) 
1

>  <reference_id>  (136) 
99

>  <inspiration_ids>  (136) 
[93, 99]

>  <energy_score>  (136) 
563.9658574521776

>  <distance_score>  (136) 
6.397430897259341

>  <path>  (136) 
/opt/xchem-fragalysis-2/maxwin/BulkDock/SCRATCH/511023/C30253-P99/C30253-P99.minimised.mol

>  <scratch_subdir>  (136) 
/opt/xchem-fragalysis-2/maxwin/BulkDock/SCRATCH/511023/C30253-P99

>  <fragmenstein_runtime>  (136) 
19.012081146240234

>  <fragmenstein_outcome>  (136) 
too moved

>  <fragmenstein_mode>  (136) 
expansion

>  <fragmenstein_error>  (136) 


$$$$
C46191-P93
     RDKit          2D

  0  0  0  0  0  0  0  0  0  0999 V2000
M  END
>  <compound_id>  (137) 
46191

>  <target_id>  (137) 
1

>  <reference_id>  (137) 
93

>  <inspiration_ids>  (137) 
[93, 99]

>  <energy_score>  (137) 
nan

>  <distance_score>  (137) 
nan

>  <path>  (137) 
/opt/xchem-fragalysis-2/maxwin/BulkDock/SCRATCH/511023/C46191-P93/C46191-P93.minimised.mol

>  <scratch_subdir>  (137) 
/opt/xchem-fragalysis-2/maxwin/BulkDock/SCRATCH/511023/C46191-P93

>  <fragmenstein_runtime>  (137) 
0.33119869232177734

>  <fragmenstein_outcome>  (137) 
too distant

>  <fragmenstein_mode>  (137) 
expansion

>  <fragmenstein_error>  (137) 
DistanceError: hit0

$$$$
C46192-P93
     RDKit          2D

  0  0  0  0  0  0  0  0  0  0999 V2000
M  END
>  <compound_id>  (138) 
46192

>  <target_id>  (138) 
1

>  <reference_id>  (138) 
93

>  <inspiration_ids>  (138) 
[93, 99]

>  <energy_score>  (138) 
nan

>  <distance_score>  (138) 
nan

>  <path>  (138) 
/opt/xchem-fragalysis-2/maxwin/BulkDock/SCRATCH/511023/C46192-P93/C46192-P93.minimised.mol

>  <scratch_subdir>  (138) 
/opt/xchem-fragalysis-2/maxwin/BulkDock/SCRATCH/511023/C46192-P93

>  <fragmenstein_runtime>  (138) 
0.27428150177001953

>  <fragmenstein_outcome>  (138) 
too distant

>  <fragmenstein_mode>  (138) 
expansion

>  <fragmenstein_error>  (138) 
DistanceError: hit0

$$$$
C46192-P93
     RDKit          2D

  0  0  0  0  0  0  0  0  0  0999 V2000
M  END
>  <compound_id>  (139) 
46192

>  <target_id>  (139) 
1

>  <reference_id>  (139) 
93

>  <inspiration_ids>  (139) 
[93, 99]

>  <energy_score>  (139) 
nan

>  <distance_score>  (139) 
nan

>  <path>  (139) 
/opt/xchem-fragalysis-2/maxwin/BulkDock/SCRATCH/511023/C46192-P93/C46192-P93.minimised.mol

>  <scratch_subdir>  (139) 
/opt/xchem-fragalysis-2/maxwin/BulkDock/SCRATCH/511023/C46192-P93

>  <fragmenstein_runtime>  (139) 
0.2916712760925293

>  <fragmenstein_outcome>  (139) 
too distant

>  <fragmenstein_mode>  (139) 
expansion

>  <fragmenstein_error>  (139) 
DistanceError: hit0

$$$$
C46194-P93
     RDKit          3D

 44 47  0  0  0  0  0  0  0  0999 V2000
   -0.9138    4.9977    8.1007 C   0  0  0  0  0  0  0  0  0  0  0  0
    0.1508    4.0522    8.2531 O   0  0  0  0  0  0  0  0  0  0  0  0
    1.2216    4.4434    9.0283 C   0  0  0  0  0  0  0  0  0  0  0  0
    2.3157    3.5756    9.0614 C   0  0  0  0  0  0  0  0  0  0  0  0
    3.4634    3.8329    9.8521 C   0  0  0  0  0  0  0  0  0  0  0  0
    3.5411    5.0365   10.5903 C   0  0  0  0  0  0  0  0  0  0  0  0
    2.4589    5.9309   10.5446 C   0  0  0  0  0  0  0  0  0  0  0  0
    2.8140    7.0492   11.3432 C   0  0  0  0  0  0  0  0  0  0  0  0
    4.0679    6.8274   11.8643 C   0  0  0  0  0  0  0  0  0  0  0  0
    4.5158    5.5982   11.4384 N   0  0  0  0  0  0  0  0  0  0  0  0
    5.7322    4.9357   11.9512 C   0  0  0  0  0  0  0  0  0  0  0  0
    6.8632    5.7977   12.6064 C   0  0  0  0  0  0  0  0  0  0  0  0
    7.8267    5.0252   13.4203 N   0  0  0  0  0  0  0  0  0  0  0  0
    9.1457    4.5173   13.1031 C   0  0  0  0  0  0  0  0  0  0  0  0
    9.8210    4.6628   12.1288 O   0  0  0  0  0  0  0  0  0  0  0  0
    9.6682    3.5906   14.1438 C   0  0  0  0  0  0  0  0  0  0  0  0
    9.3178    3.5106   15.4847 N   0  0  0  0  0  0  0  0  0  0  0  0
    9.7787    2.4060   16.1444 N   0  0  0  0  0  0  0  0  0  0  0  0
   10.6134    1.8925   15.2540 C   0  0  0  0  0  0  0  0  0  0  0  0
   10.6140    2.5813   14.0396 C   0  0  0  0  0  0  0  0  0  0  0  0
   11.5341    1.9452   13.0710 C   0  0  0  0  0  0  0  0  0  0  0  0
   12.3418    0.9449   13.9738 C   0  0  0  0  0  0  0  0  0  0  0  0
   11.4982    0.7092   15.2664 C   0  0  0  0  0  0  0  0  0  0  0  0
    1.2920    5.6128    9.7859 C   0  0  0  0  0  0  0  0  0  0  0  0
   -0.5583    5.8739    7.5480 H   0  0  0  0  0  0  0  0  0  0  0  0
   -1.7122    4.5380    7.5143 H   0  0  0  0  0  0  0  0  0  0  0  0
   -1.3401    5.3044    9.0595 H   0  0  0  0  0  0  0  0  0  0  0  0
    2.3036    2.6621    8.4715 H   0  0  0  0  0  0  0  0  0  0  0  0
    4.2815    3.1194    9.8510 H   0  0  0  0  0  0  0  0  0  0  0  0
    2.2076    7.9273   11.5222 H   0  0  0  0  0  0  0  0  0  0  0  0
    4.6480    7.4545   12.5257 H   0  0  0  0  0  0  0  0  0  0  0  0
    6.1492    4.3707   11.1124 H   0  0  0  0  0  0  0  0  0  0  0  0
    5.3381    4.2309   12.6911 H   0  0  0  0  0  0  0  0  0  0  0  0
    6.4432    6.5347   13.2953 H   0  0  0  0  0  0  0  0  0  0  0  0
    7.4211    6.3259   11.8265 H   0  0  0  0  0  0  0  0  0  0  0  0
    7.5260    4.6347   14.2999 H   0  0  0  0  0  0  0  0  0  0  0  0
    8.7380    4.1567   16.0074 H   0  0  0  0  0  0  0  0  0  0  0  0
   10.9737    1.3973   12.3084 H   0  0  0  0  0  0  0  0  0  0  0  0
   12.2011    2.6627   12.5859 H   0  0  0  0  0  0  0  0  0  0  0  0
   12.5712    0.0109   13.4513 H   0  0  0  0  0  0  0  0  0  0  0  0
   13.2964    1.4115   14.2505 H   0  0  0  0  0  0  0  0  0  0  0  0
   10.9142   -0.2128   15.1829 H   0  0  0  0  0  0  0  0  0  0  0  0
   12.1405    0.6603   16.1487 H   0  0  0  0  0  0  0  0  0  0  0  0
    0.4782    6.3281    9.8074 H   0  0  0  0  0  0  0  0  0  0  0  0
  1  2  1  0
  2  3  1  0
  3  4  2  0
  4  5  1  0
  5  6  2  0
  6  7  1  0
  7  8  1  0
  8  9  2  0
  9 10  1  0
 10 11  1  0
 11 12  1  0
 12 13  1  0
 13 14  1  0
 14 15  2  0
 14 16  1  0
 16 17  1  0
 17 18  1  0
 18 19  2  0
 19 20  1  0
 20 21  1  0
 21 22  1  0
 22 23  1  0
  7 24  2  0
 24  3  1  0
 10  6  1  0
 20 16  2  0
 23 19  1  0
  1 25  1  0
  1 26  1  0
  1 27  1  0
  4 28  1  0
  5 29  1  0
  8 30  1  0
  9 31  1  0
 11 32  1  0
 11 33  1  0
 12 34  1  0
 12 35  1  0
 13 36  1  0
 17 37  1  0
 21 38  1  0
 21 39  1  0
 22 40  1  0
 22 41  1  0
 23 42  1  0
 23 43  1  0
 24 44  1  0
M  END
>  <Energy>  (140) 
36.673029463103241

>  <compound_id>  (140) 
46194

>  <target_id>  (140) 
1

>  <reference_id>  (140) 
93

>  <inspiration_ids>  (140) 
[93, 99]

>  <energy_score>  (140) 
-14.741008882038841

>  <distance_score>  (140) 
9.36106284027241

>  <path>  (140) 
/opt/xchem-fragalysis-2/maxwin/BulkDock/SCRATCH/511023/C46194-P93/C46194-P93.minimised.mol

>  <scratch_subdir>  (140) 
/opt/xchem-fragalysis-2/maxwin/BulkDock/SCRATCH/511023/C46194-P93

>  <fragmenstein_runtime>  (140) 
15.71611475944519

>  <fragmenstein_outcome>  (140) 
too moved

>  <fragmenstein_mode>  (140) 
expansion

>  <fragmenstein_error>  (140) 


$$$$
C46194-P99
     RDKit          3D

 44 47  0  0  0  0  0  0  0  0999 V2000
   -2.8710   -0.6554    8.8165 C   0  0  0  0  0  0  0  0  0  0  0  0
   -1.7788   -1.2643    9.7566 O   0  0  0  0  0  0  0  0  0  0  0  0
   -1.1180   -0.7147   11.5249 C   0  0  0  0  0  0  0  0  0  0  0  0
    0.2124   -1.0301   11.8023 C   0  0  0  0  0  0  0  0  0  0  0  0
    1.3038   -0.0761   12.6471 C   0  0  0  0  0  0  0  0  0  0  0  0
    1.1735    1.3449   13.2763 C   0  0  0  0  0  0  0  0  0  0  0  0
   -0.1463    1.6941   13.4485 C   0  0  0  0  0  0  0  0  0  0  0  0
   -0.1975    2.9622   14.0664 C   0  0  0  0  0  0  0  0  0  0  0  0
    1.0796    3.4865   13.9615 C   0  0  0  0  0  0  0  0  0  0  0  0
    1.8680    2.5910   13.2488 N   0  0  0  0  0  0  0  0  0  0  0  0
    2.9662    3.0249   12.3256 C   0  0  0  0  0  0  0  0  0  0  0  0
    3.8686    4.3415   12.5387 C   0  0  0  0  0  0  0  0  0  0  0  0
    5.2737    4.1699   13.0076 N   0  0  0  0  0  0  0  0  0  0  0  0
    5.9411    4.6522   14.1956 C   0  0  0  0  0  0  0  0  0  0  0  0
    5.5571    5.3791   15.0641 O   0  0  0  0  0  0  0  0  0  0  0  0
    7.2901    4.0664   14.4232 C   0  0  0  0  0  0  0  0  0  0  0  0
    7.6490    3.8212   15.7558 N   0  0  0  0  0  0  0  0  0  0  0  0
    8.6944    2.9731   15.9330 N   0  0  0  0  0  0  0  0  0  0  0  0
    9.1478    2.8536   14.7008 C   0  0  0  0  0  0  0  0  0  0  0  0
    8.3638    3.5206   13.7378 C   0  0  0  0  0  0  0  0  0  0  0  0
    8.9261    3.2804   12.3921 C   0  0  0  0  0  0  0  0  0  0  0  0
   10.3445    2.6698   12.7101 C   0  0  0  0  0  0  0  0  0  0  0  0
   10.2789    2.0844   14.1502 C   0  0  0  0  0  0  0  0  0  0  0  0
   -1.1407    0.7056   12.6373 C   0  0  0  0  0  0  0  0  0  0  0  0
   -3.3970    0.1888    9.2548 H   0  0  0  0  0  0  0  0  0  0  0  0
   -2.3831   -0.3859    7.8815 H   0  0  0  0  0  0  0  0  0  0  0  0
   -3.5688   -1.4671    8.5866 H   0  0  0  0  0  0  0  0  0  0  0  0
    0.7488   -1.5909   11.0356 H   0  0  0  0  0  0  0  0  0  0  0  0
    2.1728    0.0170   11.9733 H   0  0  0  0  0  0  0  0  0  0  0  0
   -1.0717    3.5079   14.3908 H   0  0  0  0  0  0  0  0  0  0  0  0
    1.4523    4.4686   14.2173 H   0  0  0  0  0  0  0  0  0  0  0  0
    3.5739    2.1486   12.1175 H   0  0  0  0  0  0  0  0  0  0  0  0
    2.4059    3.2313   11.4044 H   0  0  0  0  0  0  0  0  0  0  0  0
    3.9681    4.8313   11.5636 H   0  0  0  0  0  0  0  0  0  0  0  0
    3.3780    5.0405   13.2205 H   0  0  0  0  0  0  0  0  0  0  0  0
    5.9255    3.6409   12.4578 H   0  0  0  0  0  0  0  0  0  0  0  0
    7.1231    4.1294   16.5682 H   0  0  0  0  0  0  0  0  0  0  0  0
    8.3124    2.5602   11.8448 H   0  0  0  0  0  0  0  0  0  0  0  0
    9.0187    4.1971   11.8035 H   0  0  0  0  0  0  0  0  0  0  0  0
   11.0837    3.4821   12.6907 H   0  0  0  0  0  0  0  0  0  0  0  0
   10.6583    1.9292   11.9699 H   0  0  0  0  0  0  0  0  0  0  0  0
   11.2149    2.2450   14.6912 H   0  0  0  0  0  0  0  0  0  0  0  0
   10.0453    1.0156   14.1234 H   0  0  0  0  0  0  0  0  0  0  0  0
   -1.8914    1.4674   12.9170 H   0  0  0  0  0  0  0  0  0  0  0  0
  1  2  1  0
  2  3  1  0
  3  4  2  0
  4  5  1  0
  5  6  2  0
  6  7  1  0
  7  8  1  0
  8  9  2  0
  9 10  1  0
 10 11  1  0
 11 12  1  0
 12 13  1  0
 13 14  1  0
 14 15  2  0
 14 16  1  0
 16 17  1  0
 17 18  1  0
 18 19  2  0
 19 20  1  0
 20 21  1  0
 21 22  1  0
 22 23  1  0
  7 24  2  0
 24  3  1  0
 10  6  1  0
 20 16  2  0
 23 19  1  0
  1 25  1  0
  1 26  1  0
  1 27  1  0
  4 28  1  0
  5 29  1  0
  8 30  1  0
  9 31  1  0
 11 32  1  0
 11 33  1  0
 12 34  1  0
 12 35  1  0
 13 36  1  0
 17 37  1  0
 21 38  1  0
 21 39  1  0
 22 40  1  0
 22 41  1  0
 23 42  1  0
 23 43  1  0
 24 44  1  0
M  END
>  <Energy>  (141) 
388.06628167058142

>  <compound_id>  (141) 
46194

>  <target_id>  (141) 
1

>  <reference_id>  (141) 
99

>  <inspiration_ids>  (141) 
[93, 99]

>  <energy_score>  (141) 
336.65224332543335

>  <distance_score>  (141) 
9.2208661776552

>  <path>  (141) 
/opt/xchem-fragalysis-2/maxwin/BulkDock/SCRATCH/511023/C46194-P99/C46194-P99.minimised.mol

>  <scratch_subdir>  (141) 
/opt/xchem-fragalysis-2/maxwin/BulkDock/SCRATCH/511023/C46194-P99

>  <fragmenstein_runtime>  (141) 
8.484252214431763

>  <fragmenstein_outcome>  (141) 
too moved

>  <fragmenstein_mode>  (141) 
expansion

>  <fragmenstein_error>  (141) 


$$$$
C46195-P93
     RDKit          3D

 50 53  0  0  0  0  0  0  0  0999 V2000
   -2.1492   -0.9252    8.4897 C   0  0  0  0  0  0  0  0  0  0  0  0
   -1.1939   -0.8789    9.6065 O   0  0  0  0  0  0  0  0  0  0  0  0
    0.5670   -0.9326   10.2886 C   0  0  0  0  0  0  0  0  0  0  0  0
    0.8139   -0.7070   11.9613 C   0  0  0  0  0  0  0  0  0  0  0  0
    2.0501    0.0824   12.5638 C   0  0  0  0  0  0  0  0  0  0  0  0
    3.1742    0.7293   11.5523 C   0  0  0  0  0  0  0  0  0  0  0  0
    2.7803    1.0552   10.2165 C   0  0  0  0  0  0  0  0  0  0  0  0
    3.6480    1.9492    9.6358 C   0  0  0  0  0  0  0  0  0  0  0  0
    4.7522    1.1837    9.8365 C   0  0  0  0  0  0  0  0  0  0  0  0
    4.5192    0.0256   11.0613 N   0  0  0  0  0  0  0  0  0  0  0  0
    5.9665   -0.8008   11.9338 C   0  0  0  0  0  0  0  0  0  0  0  0
    6.6576   -0.7626   13.3938 C   0  0  0  0  0  0  0  0  0  0  0  0
    7.8652   -1.2773   14.0197 N   0  0  0  0  0  0  0  0  0  0  0  0
    8.7692   -0.6711   14.9869 C   0  0  0  0  0  0  0  0  0  0  0  0
    8.6998    0.3723   15.5743 O   0  0  0  0  0  0  0  0  0  0  0  0
   10.0474   -1.4490   15.1961 C   0  0  0  0  0  0  0  0  0  0  0  0
   10.1181   -2.7808   15.0632 N   0  0  0  0  0  0  0  0  0  0  0  0
   11.3766   -3.1084   15.3725 N   0  0  0  0  0  0  0  0  0  0  0  0
   12.1803   -2.0376   15.5916 C   0  0  0  0  0  0  0  0  0  0  0  0
   11.3759   -0.9257   15.4140 C   0  0  0  0  0  0  0  0  0  0  0  0
   11.8374    0.4945   15.3727 C   0  0  0  0  0  0  0  0  0  0  0  0
   13.2648    0.6390   14.8339 C   0  0  0  0  0  0  0  0  0  0  0  0
   14.3756    0.2702   15.8205 C   0  0  0  0  0  0  0  0  0  0  0  0
   14.1803   -0.9962   16.6574 C   0  0  0  0  0  0  0  0  0  0  0  0
   13.6300   -2.1894   15.8852 C   0  0  0  0  0  0  0  0  0  0  0  0
    1.6485    0.0693    9.5863 C   0  0  0  0  0  0  0  0  0  0  0  0
   -2.6155    0.0511    8.4292 H   0  0  0  0  0  0  0  0  0  0  0  0
   -2.9559   -1.6344    8.6915 H   0  0  0  0  0  0  0  0  0  0  0  0
   -1.7353   -1.2797    7.5710 H   0  0  0  0  0  0  0  0  0  0  0  0
   -0.1176   -0.5252   12.5042 H   0  0  0  0  0  0  0  0  0  0  0  0
    1.8505    0.6943   13.4547 H   0  0  0  0  0  0  0  0  0  0  0  0
    3.5533    2.5627    8.7507 H   0  0  0  0  0  0  0  0  0  0  0  0
    5.7561    1.2059    9.4186 H   0  0  0  0  0  0  0  0  0  0  0  0
    6.6910   -0.8002   11.1004 H   0  0  0  0  0  0  0  0  0  0  0  0
    5.7399   -1.8062   12.2450 H   0  0  0  0  0  0  0  0  0  0  0  0
    7.3821   -0.0922   12.9750 H   0  0  0  0  0  0  0  0  0  0  0  0
    5.9879   -0.4773   14.2037 H   0  0  0  0  0  0  0  0  0  0  0  0
    8.2860   -2.1337   13.6639 H   0  0  0  0  0  0  0  0  0  0  0  0
   11.6117   -4.0928   15.4296 H   0  0  0  0  0  0  0  0  0  0  0  0
   11.1735    1.0554   14.7031 H   0  0  0  0  0  0  0  0  0  0  0  0
   11.7579    0.9599   16.3563 H   0  0  0  0  0  0  0  0  0  0  0  0
   13.4205    1.6836   14.5350 H   0  0  0  0  0  0  0  0  0  0  0  0
   13.3801    0.0457   13.9171 H   0  0  0  0  0  0  0  0  0  0  0  0
   15.3114    0.1790   15.2543 H   0  0  0  0  0  0  0  0  0  0  0  0
   14.5269    1.1094   16.5116 H   0  0  0  0  0  0  0  0  0  0  0  0
   13.5315   -0.7637   17.5089 H   0  0  0  0  0  0  0  0  0  0  0  0
   15.1532   -1.2693   17.0852 H   0  0  0  0  0  0  0  0  0  0  0  0
   13.7798   -3.0938   16.4884 H   0  0  0  0  0  0  0  0  0  0  0  0
   14.1886   -2.3267   14.9526 H   0  0  0  0  0  0  0  0  0  0  0  0
    1.8077    0.3930    8.5646 H   0  0  0  0  0  0  0  0  0  0  0  0
  1  2  1  0
  2  3  1  0
  3  4  2  0
  4  5  1  0
  5  6  2  0
  6  7  1  0
  7  8  1  0
  8  9  2  0
  9 10  1  0
 10 11  1  0
 11 12  1  0
 12 13  1  0
 13 14  1  0
 14 15  2  0
 14 16  1  0
 16 17  2  0
 17 18  1  0
 18 19  1  0
 19 20  2  0
 20 21  1  0
 21 22  1  0
 22 23  1  0
 23 24  1  0
 24 25  1  0
  7 26  2  0
 26  3  1  0
 10  6  1  0
 20 16  1  0
 25 19  1  0
  1 27  1  0
  1 28  1  0
  1 29  1  0
  4 30  1  0
  5 31  1  0
  8 32  1  0
  9 33  1  0
 11 34  1  0
 11 35  1  0
 12 36  1  0
 12 37  1  0
 13 38  1  0
 18 39  1  0
 21 40  1  0
 21 41  1  0
 22 42  1  0
 22 43  1  0
 23 44  1  0
 23 45  1  0
 24 46  1  0
 24 47  1  0
 25 48  1  0
 25 49  1  0
 26 50  1  0
M  END
>  <Energy>  (142) 
558.73988920597753

>  <compound_id>  (142) 
46195

>  <target_id>  (142) 
1

>  <reference_id>  (142) 
93

>  <inspiration_ids>  (142) 
[93, 99]

>  <energy_score>  (142) 
452.52416314901495

>  <distance_score>  (142) 
7.155842861861811

>  <path>  (142) 
/opt/xchem-fragalysis-2/maxwin/BulkDock/SCRATCH/511023/C46195-P93/C46195-P93.minimised.mol

>  <scratch_subdir>  (142) 
/opt/xchem-fragalysis-2/maxwin/BulkDock/SCRATCH/511023/C46195-P93

>  <fragmenstein_runtime>  (142) 
10.842870235443115

>  <fragmenstein_outcome>  (142) 
too moved

>  <fragmenstein_mode>  (142) 
expansion

>  <fragmenstein_error>  (142) 


$$$$
C46195-P99
     RDKit          3D

 50 53  0  0  0  0  0  0  0  0999 V2000
   -2.9206   -0.6516    8.7708 C   0  0  0  0  0  0  0  0  0  0  0  0
   -1.7878   -1.3050    9.5253 O   0  0  0  0  0  0  0  0  0  0  0  0
   -0.9694   -1.0011   11.2436 C   0  0  0  0  0  0  0  0  0  0  0  0
    0.3428   -1.0871   11.7180 C   0  0  0  0  0  0  0  0  0  0  0  0
    1.2733   -0.1269   12.7422 C   0  0  0  0  0  0  0  0  0  0  0  0
    0.9334    1.1759   13.3603 C   0  0  0  0  0  0  0  0  0  0  0  0
   -0.4413    1.3629   13.1904 C   0  0  0  0  0  0  0  0  0  0  0  0
   -0.7229    2.5902   13.8778 C   0  0  0  0  0  0  0  0  0  0  0  0
    0.4921    3.1355   14.2865 C   0  0  0  0  0  0  0  0  0  0  0  0
    1.5266    2.2889   13.9225 N   0  0  0  0  0  0  0  0  0  0  0  0
    2.9675    2.6548   13.9329 C   0  0  0  0  0  0  0  0  0  0  0  0
    3.6908    2.6522   15.3040 C   0  0  0  0  0  0  0  0  0  0  0  0
    5.1636    2.5950   15.2178 N   0  0  0  0  0  0  0  0  0  0  0  0
    6.1041    1.6032   15.6940 C   0  0  0  0  0  0  0  0  0  0  0  0
    5.9218    0.5383   16.2097 O   0  0  0  0  0  0  0  0  0  0  0  0
    7.5242    2.0310   15.4502 C   0  0  0  0  0  0  0  0  0  0  0  0
    7.8435    3.3388   15.3661 N   0  0  0  0  0  0  0  0  0  0  0  0
    9.1851    3.3427   15.2604 N   0  0  0  0  0  0  0  0  0  0  0  0
    9.7321    2.1092   15.0659 C   0  0  0  0  0  0  0  0  0  0  0  0
    8.7009    1.2095   15.2389 C   0  0  0  0  0  0  0  0  0  0  0  0
    8.7781   -0.2737   15.0976 C   0  0  0  0  0  0  0  0  0  0  0  0
   10.1550   -0.9189   15.3016 C   0  0  0  0  0  0  0  0  0  0  0  0
   11.3375   -0.5866   14.3874 C   0  0  0  0  0  0  0  0  0  0  0  0
   11.3697    0.7846   13.7265 C   0  0  0  0  0  0  0  0  0  0  0  0
   11.1619    1.9281   14.7055 C   0  0  0  0  0  0  0  0  0  0  0  0
   -1.2129   -0.0401   12.2914 C   0  0  0  0  0  0  0  0  0  0  0  0
   -3.3988    0.1769    9.2856 H   0  0  0  0  0  0  0  0  0  0  0  0
   -3.6563   -1.4316    8.5511 H   0  0  0  0  0  0  0  0  0  0  0  0
   -2.5226   -0.3169    7.8122 H   0  0  0  0  0  0  0  0  0  0  0  0
    0.1298   -1.3972   12.7637 H   0  0  0  0  0  0  0  0  0  0  0  0
    1.4039   -0.8425   13.5515 H   0  0  0  0  0  0  0  0  0  0  0  0
   -1.6865    3.0586   14.0094 H   0  0  0  0  0  0  0  0  0  0  0  0
    0.7044    4.0782   14.7738 H   0  0  0  0  0  0  0  0  0  0  0  0
    3.4670    2.0004   13.2173 H   0  0  0  0  0  0  0  0  0  0  0  0
    3.0176    3.6620   13.4995 H   0  0  0  0  0  0  0  0  0  0  0  0
    3.4483    3.5769   15.8396 H   0  0  0  0  0  0  0  0  0  0  0  0
    3.3534    1.8279   15.9375 H   0  0  0  0  0  0  0  0  0  0  0  0
    5.6778    3.4199   14.9114 H   0  0  0  0  0  0  0  0  0  0  0  0
    9.6601    4.2399   15.2598 H   0  0  0  0  0  0  0  0  0  0  0  0
    8.1134   -0.7137   15.8453 H   0  0  0  0  0  0  0  0  0  0  0  0
    8.3359   -0.5515   14.1418 H   0  0  0  0  0  0  0  0  0  0  0  0
   10.0244   -2.0043   15.2355 H   0  0  0  0  0  0  0  0  0  0  0  0
   10.4592   -0.7219   16.3283 H   0  0  0  0  0  0  0  0  0  0  0  0
   12.2556   -0.7095   14.9785 H   0  0  0  0  0  0  0  0  0  0  0  0
   11.4173   -1.3499   13.6046 H   0  0  0  0  0  0  0  0  0  0  0  0
   10.6357    0.8434   12.9160 H   0  0  0  0  0  0  0  0  0  0  0  0
   12.3531    0.9019   13.2535 H   0  0  0  0  0  0  0  0  0  0  0  0
   11.5372    2.8511   14.2461 H   0  0  0  0  0  0  0  0  0  0  0  0
   11.7536    1.7554   15.6008 H   0  0  0  0  0  0  0  0  0  0  0  0
   -2.2120   -0.3939   12.6361 H   0  0  0  0  0  0  0  0  0  0  0  0
  1  2  1  0
  2  3  1  0
  3  4  2  0
  4  5  1  0
  5  6  2  0
  6  7  1  0
  7  8  1  0
  8  9  2  0
  9 10  1  0
 10 11  1  0
 11 12  1  0
 12 13  1  0
 13 14  1  0
 14 15  2  0
 14 16  1  0
 16 17  2  0
 17 18  1  0
 18 19  1  0
 19 20  2  0
 20 21  1  0
 21 22  1  0
 22 23  1  0
 23 24  1  0
 24 25  1  0
  7 26  2  0
 26  3  1  0
 10  6  1  0
 20 16  1  0
 25 19  1  0
  1 27  1  0
  1 28  1  0
  1 29  1  0
  4 30  1  0
  5 31  1  0
  8 32  1  0
  9 33  1  0
 11 34  1  0
 11 35  1  0
 12 36  1  0
 12 37  1  0
 13 38  1  0
 18 39  1  0
 21 40  1  0
 21 41  1  0
 22 42  1  0
 22 43  1  0
 23 44  1  0
 23 45  1  0
 24 46  1  0
 24 47  1  0
 25 48  1  0
 25 49  1  0
 26 50  1  0
M  END
>  <Energy>  (143) 
467.89866984555493

>  <compound_id>  (143) 
46195

>  <target_id>  (143) 
1

>  <reference_id>  (143) 
99

>  <inspiration_ids>  (143) 
[93, 99]

>  <energy_score>  (143) 
361.6829437885964

>  <distance_score>  (143) 
8.091329158917008

>  <path>  (143) 
/opt/xchem-fragalysis-2/maxwin/BulkDock/SCRATCH/511023/C46195-P99/C46195-P99.minimised.mol

>  <scratch_subdir>  (143) 
/opt/xchem-fragalysis-2/maxwin/BulkDock/SCRATCH/511023/C46195-P99

>  <fragmenstein_runtime>  (143) 
12.065762281417847

>  <fragmenstein_outcome>  (143) 
too moved

>  <fragmenstein_mode>  (143) 
expansion

>  <fragmenstein_error>  (143) 


$$$$
C46194-P93
     RDKit          3D

 44 47  0  0  0  0  0  0  0  0999 V2000
   -0.9138    4.9977    8.1007 C   0  0  0  0  0  0  0  0  0  0  0  0
    0.1508    4.0522    8.2531 O   0  0  0  0  0  0  0  0  0  0  0  0
    1.2216    4.4434    9.0283 C   0  0  0  0  0  0  0  0  0  0  0  0
    2.3157    3.5756    9.0614 C   0  0  0  0  0  0  0  0  0  0  0  0
    3.4634    3.8329    9.8521 C   0  0  0  0  0  0  0  0  0  0  0  0
    3.5411    5.0365   10.5903 C   0  0  0  0  0  0  0  0  0  0  0  0
    2.4589    5.9309   10.5446 C   0  0  0  0  0  0  0  0  0  0  0  0
    2.8140    7.0492   11.3432 C   0  0  0  0  0  0  0  0  0  0  0  0
    4.0679    6.8274   11.8643 C   0  0  0  0  0  0  0  0  0  0  0  0
    4.5158    5.5982   11.4384 N   0  0  0  0  0  0  0  0  0  0  0  0
    5.7322    4.9357   11.9512 C   0  0  0  0  0  0  0  0  0  0  0  0
    6.8632    5.7977   12.6064 C   0  0  0  0  0  0  0  0  0  0  0  0
    7.8267    5.0252   13.4203 N   0  0  0  0  0  0  0  0  0  0  0  0
    9.1457    4.5173   13.1031 C   0  0  0  0  0  0  0  0  0  0  0  0
    9.8210    4.6628   12.1288 O   0  0  0  0  0  0  0  0  0  0  0  0
    9.6682    3.5906   14.1438 C   0  0  0  0  0  0  0  0  0  0  0  0
    9.3178    3.5106   15.4847 N   0  0  0  0  0  0  0  0  0  0  0  0
    9.7787    2.4060   16.1444 N   0  0  0  0  0  0  0  0  0  0  0  0
   10.6134    1.8925   15.2540 C   0  0  0  0  0  0  0  0  0  0  0  0
   10.6140    2.5813   14.0396 C   0  0  0  0  0  0  0  0  0  0  0  0
   11.5341    1.9452   13.0710 C   0  0  0  0  0  0  0  0  0  0  0  0
   12.3418    0.9449   13.9738 C   0  0  0  0  0  0  0  0  0  0  0  0
   11.4982    0.7092   15.2664 C   0  0  0  0  0  0  0  0  0  0  0  0
    1.2920    5.6128    9.7859 C   0  0  0  0  0  0  0  0  0  0  0  0
   -0.5583    5.8739    7.5480 H   0  0  0  0  0  0  0  0  0  0  0  0
   -1.7122    4.5380    7.5143 H   0  0  0  0  0  0  0  0  0  0  0  0
   -1.3401    5.3044    9.0595 H   0  0  0  0  0  0  0  0  0  0  0  0
    2.3036    2.6621    8.4715 H   0  0  0  0  0  0  0  0  0  0  0  0
    4.2815    3.1194    9.8510 H   0  0  0  0  0  0  0  0  0  0  0  0
    2.2076    7.9273   11.5222 H   0  0  0  0  0  0  0  0  0  0  0  0
    4.6480    7.4545   12.5257 H   0  0  0  0  0  0  0  0  0  0  0  0
    6.1492    4.3707   11.1124 H   0  0  0  0  0  0  0  0  0  0  0  0
    5.3381    4.2309   12.6911 H   0  0  0  0  0  0  0  0  0  0  0  0
    6.4432    6.5347   13.2953 H   0  0  0  0  0  0  0  0  0  0  0  0
    7.4211    6.3259   11.8265 H   0  0  0  0  0  0  0  0  0  0  0  0
    7.5260    4.6347   14.2999 H   0  0  0  0  0  0  0  0  0  0  0  0
    8.7380    4.1567   16.0074 H   0  0  0  0  0  0  0  0  0  0  0  0
   10.9737    1.3973   12.3084 H   0  0  0  0  0  0  0  0  0  0  0  0
   12.2011    2.6627   12.5859 H   0  0  0  0  0  0  0  0  0  0  0  0
   12.5712    0.0109   13.4513 H   0  0  0  0  0  0  0  0  0  0  0  0
   13.2964    1.4115   14.2505 H   0  0  0  0  0  0  0  0  0  0  0  0
   10.9142   -0.2128   15.1829 H   0  0  0  0  0  0  0  0  0  0  0  0
   12.1405    0.6603   16.1487 H   0  0  0  0  0  0  0  0  0  0  0  0
    0.4782    6.3281    9.8074 H   0  0  0  0  0  0  0  0  0  0  0  0
  1  2  1  0
  2  3  1  0
  3  4  2  0
  4  5  1  0
  5  6  2  0
  6  7  1  0
  7  8  1  0
  8  9  2  0
  9 10  1  0
 10 11  1  0
 11 12  1  0
 12 13  1  0
 13 14  1  0
 14 15  2  0
 14 16  1  0
 16 17  1  0
 17 18  1  0
 18 19  2  0
 19 20  1  0
 20 21  1  0
 21 22  1  0
 22 23  1  0
  7 24  2  0
 24  3  1  0
 10  6  1  0
 20 16  2  0
 23 19  1  0
  1 25  1  0
  1 26  1  0
  1 27  1  0
  4 28  1  0
  5 29  1  0
  8 30  1  0
  9 31  1  0
 11 32  1  0
 11 33  1  0
 12 34  1  0
 12 35  1  0
 13 36  1  0
 17 37  1  0
 21 38  1  0
 21 39  1  0
 22 40  1  0
 22 41  1  0
 23 42  1  0
 23 43  1  0
 24 44  1  0
M  END
>  <Energy>  (144) 
36.673029463103241

>  <compound_id>  (144) 
46194

>  <target_id>  (144) 
1

>  <reference_id>  (144) 
93

>  <inspiration_ids>  (144) 
[93, 99]

>  <energy_score>  (144) 
-14.741008882038841

>  <distance_score>  (144) 
9.36106284027241

>  <path>  (144) 
/opt/xchem-fragalysis-2/maxwin/BulkDock/SCRATCH/511023/C46194-P93/C46194-P93.minimised.mol

>  <scratch_subdir>  (144) 
/opt/xchem-fragalysis-2/maxwin/BulkDock/SCRATCH/511023/C46194-P93

>  <fragmenstein_runtime>  (144) 
15.43950867652893

>  <fragmenstein_outcome>  (144) 
too moved

>  <fragmenstein_mode>  (144) 
expansion

>  <fragmenstein_error>  (144) 


$$$$
C46194-P99
     RDKit          3D

 44 47  0  0  0  0  0  0  0  0999 V2000
   -2.8710   -0.6554    8.8165 C   0  0  0  0  0  0  0  0  0  0  0  0
   -1.7788   -1.2643    9.7566 O   0  0  0  0  0  0  0  0  0  0  0  0
   -1.1180   -0.7147   11.5249 C   0  0  0  0  0  0  0  0  0  0  0  0
    0.2124   -1.0301   11.8023 C   0  0  0  0  0  0  0  0  0  0  0  0
    1.3038   -0.0761   12.6471 C   0  0  0  0  0  0  0  0  0  0  0  0
    1.1735    1.3449   13.2763 C   0  0  0  0  0  0  0  0  0  0  0  0
   -0.1463    1.6941   13.4485 C   0  0  0  0  0  0  0  0  0  0  0  0
   -0.1975    2.9622   14.0664 C   0  0  0  0  0  0  0  0  0  0  0  0
    1.0796    3.4865   13.9615 C   0  0  0  0  0  0  0  0  0  0  0  0
    1.8680    2.5910   13.2488 N   0  0  0  0  0  0  0  0  0  0  0  0
    2.9662    3.0249   12.3256 C   0  0  0  0  0  0  0  0  0  0  0  0
    3.8686    4.3415   12.5387 C   0  0  0  0  0  0  0  0  0  0  0  0
    5.2737    4.1699   13.0076 N   0  0  0  0  0  0  0  0  0  0  0  0
    5.9411    4.6522   14.1956 C   0  0  0  0  0  0  0  0  0  0  0  0
    5.5571    5.3791   15.0641 O   0  0  0  0  0  0  0  0  0  0  0  0
    7.2901    4.0664   14.4232 C   0  0  0  0  0  0  0  0  0  0  0  0
    7.6490    3.8212   15.7558 N   0  0  0  0  0  0  0  0  0  0  0  0
    8.6944    2.9731   15.9330 N   0  0  0  0  0  0  0  0  0  0  0  0
    9.1478    2.8536   14.7008 C   0  0  0  0  0  0  0  0  0  0  0  0
    8.3638    3.5206   13.7378 C   0  0  0  0  0  0  0  0  0  0  0  0
    8.9261    3.2804   12.3921 C   0  0  0  0  0  0  0  0  0  0  0  0
   10.3445    2.6698   12.7101 C   0  0  0  0  0  0  0  0  0  0  0  0
   10.2789    2.0844   14.1502 C   0  0  0  0  0  0  0  0  0  0  0  0
   -1.1407    0.7056   12.6373 C   0  0  0  0  0  0  0  0  0  0  0  0
   -3.3970    0.1888    9.2548 H   0  0  0  0  0  0  0  0  0  0  0  0
   -2.3831   -0.3859    7.8815 H   0  0  0  0  0  0  0  0  0  0  0  0
   -3.5688   -1.4671    8.5866 H   0  0  0  0  0  0  0  0  0  0  0  0
    0.7488   -1.5909   11.0356 H   0  0  0  0  0  0  0  0  0  0  0  0
    2.1728    0.0170   11.9733 H   0  0  0  0  0  0  0  0  0  0  0  0
   -1.0717    3.5079   14.3908 H   0  0  0  0  0  0  0  0  0  0  0  0
    1.4523    4.4686   14.2173 H   0  0  0  0  0  0  0  0  0  0  0  0
    3.5739    2.1486   12.1175 H   0  0  0  0  0  0  0  0  0  0  0  0
    2.4059    3.2313   11.4044 H   0  0  0  0  0  0  0  0  0  0  0  0
    3.9681    4.8313   11.5636 H   0  0  0  0  0  0  0  0  0  0  0  0
    3.3780    5.0405   13.2205 H   0  0  0  0  0  0  0  0  0  0  0  0
    5.9255    3.6409   12.4578 H   0  0  0  0  0  0  0  0  0  0  0  0
    7.1231    4.1294   16.5682 H   0  0  0  0  0  0  0  0  0  0  0  0
    8.3124    2.5602   11.8448 H   0  0  0  0  0  0  0  0  0  0  0  0
    9.0187    4.1971   11.8035 H   0  0  0  0  0  0  0  0  0  0  0  0
   11.0837    3.4821   12.6907 H   0  0  0  0  0  0  0  0  0  0  0  0
   10.6583    1.9292   11.9699 H   0  0  0  0  0  0  0  0  0  0  0  0
   11.2149    2.2450   14.6912 H   0  0  0  0  0  0  0  0  0  0  0  0
   10.0453    1.0156   14.1234 H   0  0  0  0  0  0  0  0  0  0  0  0
   -1.8914    1.4674   12.9170 H   0  0  0  0  0  0  0  0  0  0  0  0
  1  2  1  0
  2  3  1  0
  3  4  2  0
  4  5  1  0
  5  6  2  0
  6  7  1  0
  7  8  1  0
  8  9  2  0
  9 10  1  0
 10 11  1  0
 11 12  1  0
 12 13  1  0
 13 14  1  0
 14 15  2  0
 14 16  1  0
 16 17  1  0
 17 18  1  0
 18 19  2  0
 19 20  1  0
 20 21  1  0
 21 22  1  0
 22 23  1  0
  7 24  2  0
 24  3  1  0
 10  6  1  0
 20 16  2  0
 23 19  1  0
  1 25  1  0
  1 26  1  0
  1 27  1  0
  4 28  1  0
  5 29  1  0
  8 30  1  0
  9 31  1  0
 11 32  1  0
 11 33  1  0
 12 34  1  0
 12 35  1  0
 13 36  1  0
 17 37  1  0
 21 38  1  0
 21 39  1  0
 22 40  1  0
 22 41  1  0
 23 42  1  0
 23 43  1  0
 24 44  1  0
M  END
>  <Energy>  (145) 
388.06628167058142

>  <compound_id>  (145) 
46194

>  <target_id>  (145) 
1

>  <reference_id>  (145) 
99

>  <inspiration_ids>  (145) 
[93, 99]

>  <energy_score>  (145) 
336.65224332543335

>  <distance_score>  (145) 
9.2208661776552

>  <path>  (145) 
/opt/xchem-fragalysis-2/maxwin/BulkDock/SCRATCH/511023/C46194-P99/C46194-P99.minimised.mol

>  <scratch_subdir>  (145) 
/opt/xchem-fragalysis-2/maxwin/BulkDock/SCRATCH/511023/C46194-P99

>  <fragmenstein_runtime>  (145) 
8.484693050384521

>  <fragmenstein_outcome>  (145) 
too moved

>  <fragmenstein_mode>  (145) 
expansion

>  <fragmenstein_error>  (145) 


$$$$
C46195-P93
     RDKit          3D

 50 53  0  0  0  0  0  0  0  0999 V2000
   -2.1492   -0.9252    8.4897 C   0  0  0  0  0  0  0  0  0  0  0  0
   -1.1939   -0.8789    9.6065 O   0  0  0  0  0  0  0  0  0  0  0  0
    0.5670   -0.9326   10.2886 C   0  0  0  0  0  0  0  0  0  0  0  0
    0.8139   -0.7070   11.9613 C   0  0  0  0  0  0  0  0  0  0  0  0
    2.0501    0.0824   12.5638 C   0  0  0  0  0  0  0  0  0  0  0  0
    3.1742    0.7293   11.5523 C   0  0  0  0  0  0  0  0  0  0  0  0
    2.7803    1.0552   10.2165 C   0  0  0  0  0  0  0  0  0  0  0  0
    3.6480    1.9492    9.6358 C   0  0  0  0  0  0  0  0  0  0  0  0
    4.7522    1.1837    9.8365 C   0  0  0  0  0  0  0  0  0  0  0  0
    4.5192    0.0256   11.0613 N   0  0  0  0  0  0  0  0  0  0  0  0
    5.9665   -0.8008   11.9338 C   0  0  0  0  0  0  0  0  0  0  0  0
    6.6576   -0.7626   13.3938 C   0  0  0  0  0  0  0  0  0  0  0  0
    7.8652   -1.2773   14.0197 N   0  0  0  0  0  0  0  0  0  0  0  0
    8.7692   -0.6711   14.9869 C   0  0  0  0  0  0  0  0  0  0  0  0
    8.6998    0.3723   15.5743 O   0  0  0  0  0  0  0  0  0  0  0  0
   10.0474   -1.4490   15.1961 C   0  0  0  0  0  0  0  0  0  0  0  0
   10.1181   -2.7808   15.0632 N   0  0  0  0  0  0  0  0  0  0  0  0
   11.3766   -3.1084   15.3725 N   0  0  0  0  0  0  0  0  0  0  0  0
   12.1803   -2.0376   15.5916 C   0  0  0  0  0  0  0  0  0  0  0  0
   11.3759   -0.9257   15.4140 C   0  0  0  0  0  0  0  0  0  0  0  0
   11.8374    0.4945   15.3727 C   0  0  0  0  0  0  0  0  0  0  0  0
   13.2648    0.6390   14.8339 C   0  0  0  0  0  0  0  0  0  0  0  0
   14.3756    0.2702   15.8205 C   0  0  0  0  0  0  0  0  0  0  0  0
   14.1803   -0.9962   16.6574 C   0  0  0  0  0  0  0  0  0  0  0  0
   13.6300   -2.1894   15.8852 C   0  0  0  0  0  0  0  0  0  0  0  0
    1.6485    0.0693    9.5863 C   0  0  0  0  0  0  0  0  0  0  0  0
   -2.6155    0.0511    8.4292 H   0  0  0  0  0  0  0  0  0  0  0  0
   -2.9559   -1.6344    8.6915 H   0  0  0  0  0  0  0  0  0  0  0  0
   -1.7353   -1.2797    7.5710 H   0  0  0  0  0  0  0  0  0  0  0  0
   -0.1176   -0.5252   12.5042 H   0  0  0  0  0  0  0  0  0  0  0  0
    1.8505    0.6943   13.4547 H   0  0  0  0  0  0  0  0  0  0  0  0
    3.5533    2.5627    8.7507 H   0  0  0  0  0  0  0  0  0  0  0  0
    5.7561    1.2059    9.4186 H   0  0  0  0  0  0  0  0  0  0  0  0
    6.6910   -0.8002   11.1004 H   0  0  0  0  0  0  0  0  0  0  0  0
    5.7399   -1.8062   12.2450 H   0  0  0  0  0  0  0  0  0  0  0  0
    7.3821   -0.0922   12.9750 H   0  0  0  0  0  0  0  0  0  0  0  0
    5.9879   -0.4773   14.2037 H   0  0  0  0  0  0  0  0  0  0  0  0
    8.2860   -2.1337   13.6639 H   0  0  0  0  0  0  0  0  0  0  0  0
   11.6117   -4.0928   15.4296 H   0  0  0  0  0  0  0  0  0  0  0  0
   11.1735    1.0554   14.7031 H   0  0  0  0  0  0  0  0  0  0  0  0
   11.7579    0.9599   16.3563 H   0  0  0  0  0  0  0  0  0  0  0  0
   13.4205    1.6836   14.5350 H   0  0  0  0  0  0  0  0  0  0  0  0
   13.3801    0.0457   13.9171 H   0  0  0  0  0  0  0  0  0  0  0  0
   15.3114    0.1790   15.2543 H   0  0  0  0  0  0  0  0  0  0  0  0
   14.5269    1.1094   16.5116 H   0  0  0  0  0  0  0  0  0  0  0  0
   13.5315   -0.7637   17.5089 H   0  0  0  0  0  0  0  0  0  0  0  0
   15.1532   -1.2693   17.0852 H   0  0  0  0  0  0  0  0  0  0  0  0
   13.7798   -3.0938   16.4884 H   0  0  0  0  0  0  0  0  0  0  0  0
   14.1886   -2.3267   14.9526 H   0  0  0  0  0  0  0  0  0  0  0  0
    1.8077    0.3930    8.5646 H   0  0  0  0  0  0  0  0  0  0  0  0
  1  2  1  0
  2  3  1  0
  3  4  2  0
  4  5  1  0
  5  6  2  0
  6  7  1  0
  7  8  1  0
  8  9  2  0
  9 10  1  0
 10 11  1  0
 11 12  1  0
 12 13  1  0
 13 14  1  0
 14 15  2  0
 14 16  1  0
 16 17  2  0
 17 18  1  0
 18 19  1  0
 19 20  2  0
 20 21  1  0
 21 22  1  0
 22 23  1  0
 23 24  1  0
 24 25  1  0
  7 26  2  0
 26  3  1  0
 10  6  1  0
 20 16  1  0
 25 19  1  0
  1 27  1  0
  1 28  1  0
  1 29  1  0
  4 30  1  0
  5 31  1  0
  8 32  1  0
  9 33  1  0
 11 34  1  0
 11 35  1  0
 12 36  1  0
 12 37  1  0
 13 38  1  0
 18 39  1  0
 21 40  1  0
 21 41  1  0
 22 42  1  0
 22 43  1  0
 23 44  1  0
 23 45  1  0
 24 46  1  0
 24 47  1  0
 25 48  1  0
 25 49  1  0
 26 50  1  0
M  END
>  <Energy>  (146) 
558.73988920597753

>  <compound_id>  (146) 
46195

>  <target_id>  (146) 
1

>  <reference_id>  (146) 
93

>  <inspiration_ids>  (146) 
[93, 99]

>  <energy_score>  (146) 
452.52416314901495

>  <distance_score>  (146) 
7.155842861861811

>  <path>  (146) 
/opt/xchem-fragalysis-2/maxwin/BulkDock/SCRATCH/511023/C46195-P93/C46195-P93.minimised.mol

>  <scratch_subdir>  (146) 
/opt/xchem-fragalysis-2/maxwin/BulkDock/SCRATCH/511023/C46195-P93

>  <fragmenstein_runtime>  (146) 
17.76740050315857

>  <fragmenstein_outcome>  (146) 
too moved

>  <fragmenstein_mode>  (146) 
expansion

>  <fragmenstein_error>  (146) 


$$$$
C46195-P99
     RDKit          3D

 50 53  0  0  0  0  0  0  0  0999 V2000
   -2.9206   -0.6516    8.7708 C   0  0  0  0  0  0  0  0  0  0  0  0
   -1.7878   -1.3050    9.5253 O   0  0  0  0  0  0  0  0  0  0  0  0
   -0.9694   -1.0011   11.2436 C   0  0  0  0  0  0  0  0  0  0  0  0
    0.3428   -1.0871   11.7180 C   0  0  0  0  0  0  0  0  0  0  0  0
    1.2733   -0.1269   12.7422 C   0  0  0  0  0  0  0  0  0  0  0  0
    0.9334    1.1759   13.3603 C   0  0  0  0  0  0  0  0  0  0  0  0
   -0.4413    1.3629   13.1904 C   0  0  0  0  0  0  0  0  0  0  0  0
   -0.7229    2.5902   13.8778 C   0  0  0  0  0  0  0  0  0  0  0  0
    0.4921    3.1355   14.2865 C   0  0  0  0  0  0  0  0  0  0  0  0
    1.5266    2.2889   13.9225 N   0  0  0  0  0  0  0  0  0  0  0  0
    2.9675    2.6548   13.9329 C   0  0  0  0  0  0  0  0  0  0  0  0
    3.6908    2.6522   15.3040 C   0  0  0  0  0  0  0  0  0  0  0  0
    5.1636    2.5950   15.2178 N   0  0  0  0  0  0  0  0  0  0  0  0
    6.1041    1.6032   15.6940 C   0  0  0  0  0  0  0  0  0  0  0  0
    5.9218    0.5383   16.2097 O   0  0  0  0  0  0  0  0  0  0  0  0
    7.5242    2.0310   15.4502 C   0  0  0  0  0  0  0  0  0  0  0  0
    7.8435    3.3388   15.3661 N   0  0  0  0  0  0  0  0  0  0  0  0
    9.1851    3.3427   15.2604 N   0  0  0  0  0  0  0  0  0  0  0  0
    9.7321    2.1092   15.0659 C   0  0  0  0  0  0  0  0  0  0  0  0
    8.7009    1.2095   15.2389 C   0  0  0  0  0  0  0  0  0  0  0  0
    8.7781   -0.2737   15.0976 C   0  0  0  0  0  0  0  0  0  0  0  0
   10.1550   -0.9189   15.3016 C   0  0  0  0  0  0  0  0  0  0  0  0
   11.3375   -0.5866   14.3874 C   0  0  0  0  0  0  0  0  0  0  0  0
   11.3697    0.7846   13.7265 C   0  0  0  0  0  0  0  0  0  0  0  0
   11.1619    1.9281   14.7055 C   0  0  0  0  0  0  0  0  0  0  0  0
   -1.2129   -0.0401   12.2914 C   0  0  0  0  0  0  0  0  0  0  0  0
   -3.3988    0.1769    9.2856 H   0  0  0  0  0  0  0  0  0  0  0  0
   -3.6563   -1.4316    8.5511 H   0  0  0  0  0  0  0  0  0  0  0  0
   -2.5226   -0.3169    7.8122 H   0  0  0  0  0  0  0  0  0  0  0  0
    0.1298   -1.3972   12.7637 H   0  0  0  0  0  0  0  0  0  0  0  0
    1.4039   -0.8425   13.5515 H   0  0  0  0  0  0  0  0  0  0  0  0
   -1.6865    3.0586   14.0094 H   0  0  0  0  0  0  0  0  0  0  0  0
    0.7044    4.0782   14.7738 H   0  0  0  0  0  0  0  0  0  0  0  0
    3.4670    2.0004   13.2173 H   0  0  0  0  0  0  0  0  0  0  0  0
    3.0176    3.6620   13.4995 H   0  0  0  0  0  0  0  0  0  0  0  0
    3.4483    3.5769   15.8396 H   0  0  0  0  0  0  0  0  0  0  0  0
    3.3534    1.8279   15.9375 H   0  0  0  0  0  0  0  0  0  0  0  0
    5.6778    3.4199   14.9114 H   0  0  0  0  0  0  0  0  0  0  0  0
    9.6601    4.2399   15.2598 H   0  0  0  0  0  0  0  0  0  0  0  0
    8.1134   -0.7137   15.8453 H   0  0  0  0  0  0  0  0  0  0  0  0
    8.3359   -0.5515   14.1418 H   0  0  0  0  0  0  0  0  0  0  0  0
   10.0244   -2.0043   15.2355 H   0  0  0  0  0  0  0  0  0  0  0  0
   10.4592   -0.7219   16.3283 H   0  0  0  0  0  0  0  0  0  0  0  0
   12.2556   -0.7095   14.9785 H   0  0  0  0  0  0  0  0  0  0  0  0
   11.4173   -1.3499   13.6046 H   0  0  0  0  0  0  0  0  0  0  0  0
   10.6357    0.8434   12.9160 H   0  0  0  0  0  0  0  0  0  0  0  0
   12.3531    0.9019   13.2535 H   0  0  0  0  0  0  0  0  0  0  0  0
   11.5372    2.8511   14.2461 H   0  0  0  0  0  0  0  0  0  0  0  0
   11.7536    1.7554   15.6008 H   0  0  0  0  0  0  0  0  0  0  0  0
   -2.2120   -0.3939   12.6361 H   0  0  0  0  0  0  0  0  0  0  0  0
  1  2  1  0
  2  3  1  0
  3  4  2  0
  4  5  1  0
  5  6  2  0
  6  7  1  0
  7  8  1  0
  8  9  2  0
  9 10  1  0
 10 11  1  0
 11 12  1  0
 12 13  1  0
 13 14  1  0
 14 15  2  0
 14 16  1  0
 16 17  2  0
 17 18  1  0
 18 19  1  0
 19 20  2  0
 20 21  1  0
 21 22  1  0
 22 23  1  0
 23 24  1  0
 24 25  1  0
  7 26  2  0
 26  3  1  0
 10  6  1  0
 20 16  1  0
 25 19  1  0
  1 27  1  0
  1 28  1  0
  1 29  1  0
  4 30  1  0
  5 31  1  0
  8 32  1  0
  9 33  1  0
 11 34  1  0
 11 35  1  0
 12 36  1  0
 12 37  1  0
 13 38  1  0
 18 39  1  0
 21 40  1  0
 21 41  1  0
 22 42  1  0
 22 43  1  0
 23 44  1  0
 23 45  1  0
 24 46  1  0
 24 47  1  0
 25 48  1  0
 25 49  1  0
 26 50  1  0
M  END
>  <Energy>  (147) 
467.89866984555493

>  <compound_id>  (147) 
46195

>  <target_id>  (147) 
1

>  <reference_id>  (147) 
99

>  <inspiration_ids>  (147) 
[93, 99]

>  <energy_score>  (147) 
361.6829437885964

>  <distance_score>  (147) 
8.091329158917008

>  <path>  (147) 
/opt/xchem-fragalysis-2/maxwin/BulkDock/SCRATCH/511023/C46195-P99/C46195-P99.minimised.mol

>  <scratch_subdir>  (147) 
/opt/xchem-fragalysis-2/maxwin/BulkDock/SCRATCH/511023/C46195-P99

>  <fragmenstein_runtime>  (147) 
12.560399293899536

>  <fragmenstein_outcome>  (147) 
too moved

>  <fragmenstein_mode>  (147) 
expansion

>  <fragmenstein_error>  (147) 


$$$$
C46197-P93
     RDKit          3D

 50 53  0  0  0  0  0  0  0  0999 V2000
   -3.3637   -4.0210   17.1017 C   0  0  0  0  0  0  0  0  0  0  0  0
   -2.6726   -2.7881   16.9291 O   0  0  0  0  0  0  0  0  0  0  0  0
   -1.3044   -2.9156   16.8003 C   0  0  0  0  0  0  0  0  0  0  0  0
   -0.7501   -3.7511   15.8240 C   0  0  0  0  0  0  0  0  0  0  0  0
    0.6240   -3.7743   15.6392 C   0  0  0  0  0  0  0  0  0  0  0  0
    1.4728   -2.9232   16.3679 C   0  0  0  0  0  0  0  0  0  0  0  0
    0.9325   -2.0180   17.3038 C   0  0  0  0  0  0  0  0  0  0  0  0
   -0.4527   -2.0594   17.5655 C   0  0  0  0  0  0  0  0  0  0  0  0
   -0.6921   -1.1309   18.6146 C   0  0  0  0  0  0  0  0  0  0  0  0
    0.4995   -0.5222   18.9334 C   0  0  0  0  0  0  0  0  0  0  0  0
    1.4783   -0.9770   18.0683 N   0  0  0  0  0  0  0  0  0  0  0  0
    2.7029   -0.1789   17.8431 C   0  0  0  0  0  0  0  0  0  0  0  0
    4.0593   -0.8585   17.9981 C   0  0  0  0  0  0  0  0  0  0  0  0
    5.1983   -0.0653   17.4824 N   0  0  0  0  0  0  0  0  0  0  0  0
    6.4498    0.2631   18.0732 C   0  0  0  0  0  0  0  0  0  0  0  0
    6.8729    0.0499   19.1676 O   0  0  0  0  0  0  0  0  0  0  0  0
    7.3390    1.0554   17.2045 C   0  0  0  0  0  0  0  0  0  0  0  0
    7.5161    2.3728   17.5490 N   0  0  0  0  0  0  0  0  0  0  0  0
    8.5606    2.9664   16.9746 N   0  0  0  0  0  0  0  0  0  0  0  0
    9.0811    2.0335   16.1805 C   0  0  0  0  0  0  0  0  0  0  0  0
    8.3285    0.8137   16.2287 C   0  0  0  0  0  0  0  0  0  0  0  0
    8.7102   -0.3897   15.4086 C   0  0  0  0  0  0  0  0  0  0  0  0
   10.2273   -0.6791   15.4012 C   0  0  0  0  0  0  0  0  0  0  0  0
   11.0792    0.1440   14.4330 C   0  0  0  0  0  0  0  0  0  0  0  0
   10.5963    1.5640   14.1802 C   0  0  0  0  0  0  0  0  0  0  0  0
   10.3515    2.3590   15.4541 C   0  0  0  0  0  0  0  0  0  0  0  0
   -2.9841   -4.5505   17.9825 H   0  0  0  0  0  0  0  0  0  0  0  0
   -3.3013   -4.6705   16.2251 H   0  0  0  0  0  0  0  0  0  0  0  0
   -4.4193   -3.7922   17.2762 H   0  0  0  0  0  0  0  0  0  0  0  0
   -1.3740   -4.3745   15.1948 H   0  0  0  0  0  0  0  0  0  0  0  0
    1.0585   -4.4506   14.9063 H   0  0  0  0  0  0  0  0  0  0  0  0
    2.5414   -2.9736   16.1896 H   0  0  0  0  0  0  0  0  0  0  0  0
   -1.6511   -0.9220   19.0704 H   0  0  0  0  0  0  0  0  0  0  0  0
    0.7096    0.2586   19.6531 H   0  0  0  0  0  0  0  0  0  0  0  0
    2.6667    0.6624   18.5481 H   0  0  0  0  0  0  0  0  0  0  0  0
    2.5693    0.2767   16.8622 H   0  0  0  0  0  0  0  0  0  0  0  0
    4.2551   -1.0645   19.0565 H   0  0  0  0  0  0  0  0  0  0  0  0
    4.0654   -1.8218   17.4912 H   0  0  0  0  0  0  0  0  0  0  0  0
    5.2164    0.2003   16.5034 H   0  0  0  0  0  0  0  0  0  0  0  0
    7.0245    2.8774   18.2794 H   0  0  0  0  0  0  0  0  0  0  0  0
    8.1779   -1.2686   15.7690 H   0  0  0  0  0  0  0  0  0  0  0  0
    8.3504   -0.2387   14.3838 H   0  0  0  0  0  0  0  0  0  0  0  0
   10.6512   -0.5004   16.3881 H   0  0  0  0  0  0  0  0  0  0  0  0
   10.3905   -1.7413   15.1837 H   0  0  0  0  0  0  0  0  0  0  0  0
   12.1056    0.1758   14.8223 H   0  0  0  0  0  0  0  0  0  0  0  0
   11.1612   -0.3645   13.4695 H   0  0  0  0  0  0  0  0  0  0  0  0
    9.6951    1.5496   13.5598 H   0  0  0  0  0  0  0  0  0  0  0  0
   11.3649    2.0776   13.5887 H   0  0  0  0  0  0  0  0  0  0  0  0
   11.1972    2.2379   16.1425 H   0  0  0  0  0  0  0  0  0  0  0  0
   10.3242    3.4226   15.1811 H   0  0  0  0  0  0  0  0  0  0  0  0
  1  2  1  0
  2  3  1  0
  3  4  2  0
  4  5  1  0
  5  6  2  0
  6  7  1  0
  7  8  2  0
  8  9  1  0
  9 10  2  0
 10 11  1  0
 11 12  1  0
 12 13  1  0
 13 14  1  0
 14 15  1  0
 15 16  2  0
 15 17  1  0
 17 18  1  0
 18 19  1  0
 19 20  2  0
 20 21  1  0
 21 22  1  0
 22 23  1  0
 23 24  1  0
 24 25  1  0
 25 26  1  0
  8  3  1  0
 21 17  2  0
 11  7  1  0
 26 20  1  0
  1 27  1  0
  1 28  1  0
  1 29  1  0
  4 30  1  0
  5 31  1  0
  6 32  1  0
  9 33  1  0
 10 34  1  0
 12 35  1  0
 12 36  1  0
 13 37  1  0
 13 38  1  0
 14 39  1  0
 18 40  1  0
 22 41  1  0
 22 42  1  0
 23 43  1  0
 23 44  1  0
 24 45  1  0
 24 46  1  0
 25 47  1  0
 25 48  1  0
 26 49  1  0
 26 50  1  0
M  END
>  <Energy>  (148) 
42.536811347808424

>  <compound_id>  (148) 
46197

>  <target_id>  (148) 
1

>  <reference_id>  (148) 
93

>  <inspiration_ids>  (148) 
[93, 99]

>  <energy_score>  (148) 
-11.205425779268495

>  <distance_score>  (148) 
9.590354780323594

>  <path>  (148) 
/opt/xchem-fragalysis-2/maxwin/BulkDock/SCRATCH/511023/C46197-P93/C46197-P93.minimised.mol

>  <scratch_subdir>  (148) 
/opt/xchem-fragalysis-2/maxwin/BulkDock/SCRATCH/511023/C46197-P93

>  <fragmenstein_runtime>  (148) 
15.691485166549683

>  <fragmenstein_outcome>  (148) 
too moved

>  <fragmenstein_mode>  (148) 
expansion

>  <fragmenstein_error>  (148) 


$$$$
C46197-P99
     RDKit          3D

 50 53  0  0  0  0  0  0  0  0999 V2000
   -6.2670    0.3181    6.8542 C   0  0  0  0  0  0  0  0  0  0  0  0
   -5.1628    0.3085    5.9367 O   0  0  0  0  0  0  0  0  0  0  0  0
   -4.3261   -0.7802    6.1925 C   0  0  0  0  0  0  0  0  0  0  0  0
   -4.8351   -1.9964    5.8394 C   0  0  0  0  0  0  0  0  0  0  0  0
   -4.3976   -3.0297    6.6062 C   0  0  0  0  0  0  0  0  0  0  0  0
   -3.2862   -2.9457    7.4827 C   0  0  0  0  0  0  0  0  0  0  0  0
   -2.4349   -1.7802    7.6126 C   0  0  0  0  0  0  0  0  0  0  0  0
   -3.1717   -0.6497    7.0479 C   0  0  0  0  0  0  0  0  0  0  0  0
   -2.8670    0.4350    7.8689 C   0  0  0  0  0  0  0  0  0  0  0  0
   -2.7097   -0.3153    8.9730 C   0  0  0  0  0  0  0  0  0  0  0  0
   -1.4050   -1.2419    8.7961 N   0  0  0  0  0  0  0  0  0  0  0  0
    0.4566   -1.3330    9.6467 C   0  0  0  0  0  0  0  0  0  0  0  0
    2.1038   -1.2218   10.9993 C   0  0  0  0  0  0  0  0  0  0  0  0
    3.9238   -0.2086   11.1383 N   0  0  0  0  0  0  0  0  0  0  0  0
    5.6491   -0.7297   11.9404 C   0  0  0  0  0  0  0  0  0  0  0  0
    5.8013   -1.8534   12.3670 O   0  0  0  0  0  0  0  0  0  0  0  0
    7.1103    0.2515   12.3443 C   0  0  0  0  0  0  0  0  0  0  0  0
    7.6493    1.4436   11.8082 N   0  0  0  0  0  0  0  0  0  0  0  0
    8.6180    2.0809   12.4405 N   0  0  0  0  0  0  0  0  0  0  0  0
    8.8255    1.3232   13.5008 C   0  0  0  0  0  0  0  0  0  0  0  0
    7.8519    0.2518   13.5722 C   0  0  0  0  0  0  0  0  0  0  0  0
    7.8199   -0.7330   14.6731 C   0  0  0  0  0  0  0  0  0  0  0  0
    8.9776   -0.5631   15.6609 C   0  0  0  0  0  0  0  0  0  0  0  0
   10.3917   -0.7607   15.1273 C   0  0  0  0  0  0  0  0  0  0  0  0
   10.9869    0.4773   14.4674 C   0  0  0  0  0  0  0  0  0  0  0  0
   10.0168    1.6479   14.3434 C   0  0  0  0  0  0  0  0  0  0  0  0
   -7.0206   -0.4185    6.5578 H   0  0  0  0  0  0  0  0  0  0  0  0
   -6.7268    1.3097    6.8057 H   0  0  0  0  0  0  0  0  0  0  0  0
   -5.9475    0.1444    7.8879 H   0  0  0  0  0  0  0  0  0  0  0  0
   -5.7211   -2.0882    5.2224 H   0  0  0  0  0  0  0  0  0  0  0  0
   -5.0485   -3.8857    6.6277 H   0  0  0  0  0  0  0  0  0  0  0  0
   -3.1875   -3.8106    8.1157 H   0  0  0  0  0  0  0  0  0  0  0  0
   -3.4772    1.3256    7.9251 H   0  0  0  0  0  0  0  0  0  0  0  0
   -3.6212   -0.8254    9.2978 H   0  0  0  0  0  0  0  0  0  0  0  0
   -0.1056   -1.1760   10.6219 H   0  0  0  0  0  0  0  0  0  0  0  0
    0.9837   -0.5295    9.1595 H   0  0  0  0  0  0  0  0  0  0  0  0
    2.6429   -2.1314   11.0549 H   0  0  0  0  0  0  0  0  0  0  0  0
    1.5477   -0.8663   11.8970 H   0  0  0  0  0  0  0  0  0  0  0  0
    4.0047    0.7362   10.7617 H   0  0  0  0  0  0  0  0  0  0  0  0
    7.4347    1.7312   10.8619 H   0  0  0  0  0  0  0  0  0  0  0  0
    6.8749   -0.6052   15.2134 H   0  0  0  0  0  0  0  0  0  0  0  0
    7.8219   -1.7545   14.2805 H   0  0  0  0  0  0  0  0  0  0  0  0
    8.8750    0.3580   16.2446 H   0  0  0  0  0  0  0  0  0  0  0  0
    8.8455   -1.3285   16.3804 H   0  0  0  0  0  0  0  0  0  0  0  0
   10.4294   -1.6190   14.4483 H   0  0  0  0  0  0  0  0  0  0  0  0
   11.0445   -1.0496   15.9589 H   0  0  0  0  0  0  0  0  0  0  0  0
   11.3771    0.2063   13.4782 H   0  0  0  0  0  0  0  0  0  0  0  0
   11.8568    0.8074   15.0487 H   0  0  0  0  0  0  0  0  0  0  0  0
    9.7021    2.0229   15.3233 H   0  0  0  0  0  0  0  0  0  0  0  0
   10.5682    2.4829   13.8889 H   0  0  0  0  0  0  0  0  0  0  0  0
  1  2  1  0
  2  3  1  0
  3  4  2  0
  4  5  1  0
  5  6  2  0
  6  7  1  0
  7  8  2  0
  8  9  1  0
  9 10  2  0
 10 11  1  0
 11 12  1  0
 12 13  1  0
 13 14  1  0
 14 15  1  0
 15 16  2  0
 15 17  1  0
 17 18  1  0
 18 19  1  0
 19 20  2  0
 20 21  1  0
 21 22  1  0
 22 23  1  0
 23 24  1  0
 24 25  1  0
 25 26  1  0
  8  3  1  0
 21 17  2  0
 11  7  1  0
 26 20  1  0
  1 27  1  0
  1 28  1  0
  1 29  1  0
  4 30  1  0
  5 31  1  0
  6 32  1  0
  9 33  1  0
 10 34  1  0
 12 35  1  0
 12 36  1  0
 13 37  1  0
 13 38  1  0
 14 39  1  0
 18 40  1  0
 22 41  1  0
 22 42  1  0
 23 43  1  0
 23 44  1  0
 24 45  1  0
 24 46  1  0
 25 47  1  0
 25 48  1  0
 26 49  1  0
 26 50  1  0
M  END
>  <Energy>  (149) 
801.44397597260956

>  <compound_id>  (149) 
46197

>  <target_id>  (149) 
1

>  <reference_id>  (149) 
99

>  <inspiration_ids>  (149) 
[93, 99]

>  <energy_score>  (149) 
747.7017388455388

>  <distance_score>  (149) 
7.631275343606921

>  <path>  (149) 
/opt/xchem-fragalysis-2/maxwin/BulkDock/SCRATCH/511023/C46197-P99/C46197-P99.minimised.mol

>  <scratch_subdir>  (149) 
/opt/xchem-fragalysis-2/maxwin/BulkDock/SCRATCH/511023/C46197-P99

>  <fragmenstein_runtime>  (149) 
8.367342948913574

>  <fragmenstein_outcome>  (149) 
too moved

>  <fragmenstein_mode>  (149) 
expansion

>  <fragmenstein_error>  (149) 


$$$$
C46198-P93
     RDKit          3D

 44 47  0  0  0  0  0  0  0  0999 V2000
   -3.2715   -1.8336    7.8727 C   0  0  0  0  0  0  0  0  0  0  0  0
   -1.9454   -1.4016    8.2158 O   0  0  0  0  0  0  0  0  0  0  0  0
   -1.7327   -0.7413    9.5644 C   0  0  0  0  0  0  0  0  0  0  0  0
   -3.4437   -0.1054    9.7453 C   0  0  0  0  0  0  0  0  0  0  0  0
   -4.0082   -0.2701   11.3953 C   0  0  0  0  0  0  0  0  0  0  0  0
   -2.3733   -0.3680   12.3821 C   0  0  0  0  0  0  0  0  0  0  0  0
   -0.5196   -0.2064   12.2604 C   0  0  0  0  0  0  0  0  0  0  0  0
   -0.1511   -1.0530   10.7616 C   0  0  0  0  0  0  0  0  0  0  0  0
    0.4505   -0.8006   12.5589 C   0  0  0  0  0  0  0  0  0  0  0  0
    1.1974   -0.9670   13.6734 C   0  0  0  0  0  0  0  0  0  0  0  0
    1.1623    0.2353   13.1738 N   0  0  0  0  0  0  0  0  0  0  0  0
    2.9696    1.0162   13.1746 C   0  0  0  0  0  0  0  0  0  0  0  0
    4.9284    0.5561   13.9624 C   0  0  0  0  0  0  0  0  0  0  0  0
    6.4609   -0.1567   14.1270 N   0  0  0  0  0  0  0  0  0  0  0  0
    7.3846   -0.1957   15.2795 C   0  0  0  0  0  0  0  0  0  0  0  0
    7.2435    0.1957   16.4042 O   0  0  0  0  0  0  0  0  0  0  0  0
    8.7361   -0.6806   15.0639 C   0  0  0  0  0  0  0  0  0  0  0  0
    9.1221   -1.9928   14.9635 N   0  0  0  0  0  0  0  0  0  0  0  0
   10.4425   -2.2295   15.2465 N   0  0  0  0  0  0  0  0  0  0  0  0
   10.9300   -1.0072   15.3055 C   0  0  0  0  0  0  0  0  0  0  0  0
    9.9453   -0.0240   15.2318 C   0  0  0  0  0  0  0  0  0  0  0  0
   10.5175    1.3126   15.4734 C   0  0  0  0  0  0  0  0  0  0  0  0
   12.0656    1.0370   15.4247 C   0  0  0  0  0  0  0  0  0  0  0  0
   12.2807   -0.5016   15.5844 C   0  0  0  0  0  0  0  0  0  0  0  0
   -3.2386   -2.8598    7.5114 H   0  0  0  0  0  0  0  0  0  0  0  0
   -3.9853   -1.8790    8.6727 H   0  0  0  0  0  0  0  0  0  0  0  0
   -3.6839   -1.1704    7.1105 H   0  0  0  0  0  0  0  0  0  0  0  0
   -4.1438    0.0270    8.9342 H   0  0  0  0  0  0  0  0  0  0  0  0
   -5.0163   -0.3966   11.7245 H   0  0  0  0  0  0  0  0  0  0  0  0
   -2.4479   -1.3427   12.8362 H   0  0  0  0  0  0  0  0  0  0  0  0
    0.0705   -1.6699   13.2919 H   0  0  0  0  0  0  0  0  0  0  0  0
    0.8907   -0.9705   14.7148 H   0  0  0  0  0  0  0  0  0  0  0  0
    3.0241    1.2069   12.0901 H   0  0  0  0  0  0  0  0  0  0  0  0
    2.5602    1.9083   13.6766 H   0  0  0  0  0  0  0  0  0  0  0  0
    5.1177   -0.4822   14.1385 H   0  0  0  0  0  0  0  0  0  0  0  0
    5.1475    0.7794   15.0521 H   0  0  0  0  0  0  0  0  0  0  0  0
    6.9444   -0.5064   13.2989 H   0  0  0  0  0  0  0  0  0  0  0  0
    8.5351   -2.7879   14.7439 H   0  0  0  0  0  0  0  0  0  0  0  0
   10.2269    2.0380   14.7082 H   0  0  0  0  0  0  0  0  0  0  0  0
   10.2251    1.6922   16.4571 H   0  0  0  0  0  0  0  0  0  0  0  0
   12.6066    1.6105   16.1842 H   0  0  0  0  0  0  0  0  0  0  0  0
   12.4490    1.3511   14.4449 H   0  0  0  0  0  0  0  0  0  0  0  0
   13.0288   -0.8715   14.8782 H   0  0  0  0  0  0  0  0  0  0  0  0
   12.5919   -0.7434   16.6048 H   0  0  0  0  0  0  0  0  0  0  0  0
  1  2  1  0
  2  3  1  0
  3  4  2  0
  4  5  1  0
  5  6  2  0
  6  7  1  0
  7  8  2  0
  8  9  1  0
  9 10  2  0
 10 11  1  0
 11 12  1  0
 12 13  1  0
 13 14  1  0
 14 15  1  0
 15 16  2  0
 15 17  1  0
 17 18  1  0
 18 19  1  0
 19 20  2  0
 20 21  1  0
 21 22  1  0
 22 23  1  0
 23 24  1  0
  8  3  1  0
 21 17  2  0
 11  7  1  0
 24 20  1  0
  1 25  1  0
  1 26  1  0
  1 27  1  0
  4 28  1  0
  5 29  1  0
  6 30  1  0
  9 31  1  0
 10 32  1  0
 12 33  1  0
 12 34  1  0
 13 35  1  0
 13 36  1  0
 14 37  1  0
 18 38  1  0
 22 39  1  0
 22 40  1  0
 23 41  1  0
 23 42  1  0
 24 43  1  0
 24 44  1  0
M  END
>  <Energy>  (150) 
1403.8627221899012

>  <compound_id>  (150) 
46198

>  <target_id>  (150) 
1

>  <reference_id>  (150) 
93

>  <inspiration_ids>  (150) 
[93, 99]

>  <energy_score>  (150) 
1348.8729444968963

>  <distance_score>  (150) 
6.582823749384995

>  <path>  (150) 
/opt/xchem-fragalysis-2/maxwin/BulkDock/SCRATCH/511023/C46198-P93/C46198-P93.minimised.mol

>  <scratch_subdir>  (150) 
/opt/xchem-fragalysis-2/maxwin/BulkDock/SCRATCH/511023/C46198-P93

>  <fragmenstein_runtime>  (150) 
10.603307008743286

>  <fragmenstein_outcome>  (150) 
too moved

>  <fragmenstein_mode>  (150) 
expansion

>  <fragmenstein_error>  (150) 


$$$$
C46198-P99
     RDKit          3D

 44 47  0  0  0  0  0  0  0  0999 V2000
   -6.6185    0.0799   11.5371 C   0  0  0  0  0  0  0  0  0  0  0  0
   -5.3590   -0.4116   12.0357 O   0  0  0  0  0  0  0  0  0  0  0  0
   -3.9342   -0.1576   11.5443 C   0  0  0  0  0  0  0  0  0  0  0  0
   -4.1934   -0.2149    9.7804 C   0  0  0  0  0  0  0  0  0  0  0  0
   -3.2810   -0.7252    8.8063 C   0  0  0  0  0  0  0  0  0  0  0  0
   -1.9689   -1.2458    9.3117 C   0  0  0  0  0  0  0  0  0  0  0  0
   -1.0372   -1.0941   11.0462 C   0  0  0  0  0  0  0  0  0  0  0  0
   -2.1960   -0.7184   12.2755 C   0  0  0  0  0  0  0  0  0  0  0  0
   -0.9571    0.0543   12.5951 C   0  0  0  0  0  0  0  0  0  0  0  0
    0.1845   -0.7045   12.9561 C   0  0  0  0  0  0  0  0  0  0  0  0
    0.6588   -1.0265   11.7135 N   0  0  0  0  0  0  0  0  0  0  0  0
    2.2596    0.0012   11.6457 C   0  0  0  0  0  0  0  0  0  0  0  0
    4.1302    0.0823   11.0429 C   0  0  0  0  0  0  0  0  0  0  0  0
    5.6632   -0.6229   12.1023 N   0  0  0  0  0  0  0  0  0  0  0  0
    6.8095    0.1293   12.9075 C   0  0  0  0  0  0  0  0  0  0  0  0
    7.0625    1.3196   12.9875 O   0  0  0  0  0  0  0  0  0  0  0  0
    7.6402   -0.6531   13.7817 C   0  0  0  0  0  0  0  0  0  0  0  0
    7.4359   -1.9367   14.2004 N   0  0  0  0  0  0  0  0  0  0  0  0
    8.4352   -2.4280   14.9533 N   0  0  0  0  0  0  0  0  0  0  0  0
    9.2869   -1.4203   15.0247 C   0  0  0  0  0  0  0  0  0  0  0  0
    8.7733   -0.2536   14.4922 C   0  0  0  0  0  0  0  0  0  0  0  0
    9.7777    0.8341   14.5241 C   0  0  0  0  0  0  0  0  0  0  0  0
   11.1136    0.0324   14.7347 C   0  0  0  0  0  0  0  0  0  0  0  0
   10.7236   -1.3502   15.3517 C   0  0  0  0  0  0  0  0  0  0  0  0
   -7.3247   -0.6544   11.7996 H   0  0  0  0  0  0  0  0  0  0  0  0
   -6.8497    0.9947   12.0739 H   0  0  0  0  0  0  0  0  0  0  0  0
   -6.7843    0.1547   10.4550 H   0  0  0  0  0  0  0  0  0  0  0  0
   -5.1942   -0.0841    9.3701 H   0  0  0  0  0  0  0  0  0  0  0  0
   -3.5378   -0.8064    7.7570 H   0  0  0  0  0  0  0  0  0  0  0  0
   -1.3664   -1.4157    8.4740 H   0  0  0  0  0  0  0  0  0  0  0  0
   -1.0176    1.1076   12.9832 H   0  0  0  0  0  0  0  0  0  0  0  0
    0.8652   -0.5365   13.7505 H   0  0  0  0  0  0  0  0  0  0  0  0
    2.1122    0.3631   12.6632 H   0  0  0  0  0  0  0  0  0  0  0  0
    2.1272    1.0662   11.4838 H   0  0  0  0  0  0  0  0  0  0  0  0
    3.9449    1.1682   11.3966 H   0  0  0  0  0  0  0  0  0  0  0  0
    4.3336    0.5067   10.0572 H   0  0  0  0  0  0  0  0  0  0  0  0
    5.7942   -1.6263   12.1888 H   0  0  0  0  0  0  0  0  0  0  0  0
    6.6798   -2.5661   13.9634 H   0  0  0  0  0  0  0  0  0  0  0  0
    9.8147    1.4197   13.6018 H   0  0  0  0  0  0  0  0  0  0  0  0
    9.5953    1.4995   15.3741 H   0  0  0  0  0  0  0  0  0  0  0  0
   11.8358    0.5821   15.3437 H   0  0  0  0  0  0  0  0  0  0  0  0
   11.5809   -0.1372   13.7553 H   0  0  0  0  0  0  0  0  0  0  0  0
   11.2998   -2.1585   14.8921 H   0  0  0  0  0  0  0  0  0  0  0  0
   10.8909   -1.3611   16.4255 H   0  0  0  0  0  0  0  0  0  0  0  0
  1  2  1  0
  2  3  1  0
  3  4  2  0
  4  5  1  0
  5  6  2  0
  6  7  1  0
  7  8  2  0
  8  9  1  0
  9 10  2  0
 10 11  1  0
 11 12  1  0
 12 13  1  0
 13 14  1  0
 14 15  1  0
 15 16  2  0
 15 17  1  0
 17 18  1  0
 18 19  1  0
 19 20  2  0
 20 21  1  0
 21 22  1  0
 22 23  1  0
 23 24  1  0
  8  3  1  0
 21 17  2  0
 11  7  1  0
 24 20  1  0
  1 25  1  0
  1 26  1  0
  1 27  1  0
  4 28  1  0
  5 29  1  0
  6 30  1  0
  9 31  1  0
 10 32  1  0
 12 33  1  0
 12 34  1  0
 13 35  1  0
 13 36  1  0
 14 37  1  0
 18 38  1  0
 22 39  1  0
 22 40  1  0
 23 41  1  0
 23 42  1  0
 24 43  1  0
 24 44  1  0
M  END
>  <Energy>  (151) 
798.08017945210588

>  <compound_id>  (151) 
46198

>  <target_id>  (151) 
1

>  <reference_id>  (151) 
99

>  <inspiration_ids>  (151) 
[93, 99]

>  <energy_score>  (151) 
743.0904017591005

>  <distance_score>  (151) 
7.060713408713585

>  <path>  (151) 
/opt/xchem-fragalysis-2/maxwin/BulkDock/SCRATCH/511023/C46198-P99/C46198-P99.minimised.mol

>  <scratch_subdir>  (151) 
/opt/xchem-fragalysis-2/maxwin/BulkDock/SCRATCH/511023/C46198-P99

>  <fragmenstein_runtime>  (151) 
10.836231708526611

>  <fragmenstein_outcome>  (151) 
too moved

>  <fragmenstein_mode>  (151) 
expansion

>  <fragmenstein_error>  (151) 


$$$$
C46197-P93
     RDKit          3D

 50 53  0  0  0  0  0  0  0  0999 V2000
   -3.3637   -4.0210   17.1017 C   0  0  0  0  0  0  0  0  0  0  0  0
   -2.6726   -2.7881   16.9291 O   0  0  0  0  0  0  0  0  0  0  0  0
   -1.3044   -2.9156   16.8003 C   0  0  0  0  0  0  0  0  0  0  0  0
   -0.7501   -3.7511   15.8240 C   0  0  0  0  0  0  0  0  0  0  0  0
    0.6240   -3.7743   15.6392 C   0  0  0  0  0  0  0  0  0  0  0  0
    1.4728   -2.9232   16.3679 C   0  0  0  0  0  0  0  0  0  0  0  0
    0.9325   -2.0180   17.3038 C   0  0  0  0  0  0  0  0  0  0  0  0
   -0.4527   -2.0594   17.5655 C   0  0  0  0  0  0  0  0  0  0  0  0
   -0.6921   -1.1309   18.6146 C   0  0  0  0  0  0  0  0  0  0  0  0
    0.4995   -0.5222   18.9334 C   0  0  0  0  0  0  0  0  0  0  0  0
    1.4783   -0.9770   18.0683 N   0  0  0  0  0  0  0  0  0  0  0  0
    2.7029   -0.1789   17.8431 C   0  0  0  0  0  0  0  0  0  0  0  0
    4.0593   -0.8585   17.9981 C   0  0  0  0  0  0  0  0  0  0  0  0
    5.1983   -0.0653   17.4824 N   0  0  0  0  0  0  0  0  0  0  0  0
    6.4498    0.2631   18.0732 C   0  0  0  0  0  0  0  0  0  0  0  0
    6.8729    0.0499   19.1676 O   0  0  0  0  0  0  0  0  0  0  0  0
    7.3390    1.0554   17.2045 C   0  0  0  0  0  0  0  0  0  0  0  0
    7.5161    2.3728   17.5490 N   0  0  0  0  0  0  0  0  0  0  0  0
    8.5606    2.9664   16.9746 N   0  0  0  0  0  0  0  0  0  0  0  0
    9.0811    2.0335   16.1805 C   0  0  0  0  0  0  0  0  0  0  0  0
    8.3285    0.8137   16.2287 C   0  0  0  0  0  0  0  0  0  0  0  0
    8.7102   -0.3897   15.4086 C   0  0  0  0  0  0  0  0  0  0  0  0
   10.2273   -0.6791   15.4012 C   0  0  0  0  0  0  0  0  0  0  0  0
   11.0792    0.1440   14.4330 C   0  0  0  0  0  0  0  0  0  0  0  0
   10.5963    1.5640   14.1802 C   0  0  0  0  0  0  0  0  0  0  0  0
   10.3515    2.3590   15.4541 C   0  0  0  0  0  0  0  0  0  0  0  0
   -2.9841   -4.5505   17.9825 H   0  0  0  0  0  0  0  0  0  0  0  0
   -3.3013   -4.6705   16.2251 H   0  0  0  0  0  0  0  0  0  0  0  0
   -4.4193   -3.7922   17.2762 H   0  0  0  0  0  0  0  0  0  0  0  0
   -1.3740   -4.3745   15.1948 H   0  0  0  0  0  0  0  0  0  0  0  0
    1.0585   -4.4506   14.9063 H   0  0  0  0  0  0  0  0  0  0  0  0
    2.5414   -2.9736   16.1896 H   0  0  0  0  0  0  0  0  0  0  0  0
   -1.6511   -0.9220   19.0704 H   0  0  0  0  0  0  0  0  0  0  0  0
    0.7096    0.2586   19.6531 H   0  0  0  0  0  0  0  0  0  0  0  0
    2.6667    0.6624   18.5481 H   0  0  0  0  0  0  0  0  0  0  0  0
    2.5693    0.2767   16.8622 H   0  0  0  0  0  0  0  0  0  0  0  0
    4.2551   -1.0645   19.0565 H   0  0  0  0  0  0  0  0  0  0  0  0
    4.0654   -1.8218   17.4912 H   0  0  0  0  0  0  0  0  0  0  0  0
    5.2164    0.2003   16.5034 H   0  0  0  0  0  0  0  0  0  0  0  0
    7.0245    2.8774   18.2794 H   0  0  0  0  0  0  0  0  0  0  0  0
    8.1779   -1.2686   15.7690 H   0  0  0  0  0  0  0  0  0  0  0  0
    8.3504   -0.2387   14.3838 H   0  0  0  0  0  0  0  0  0  0  0  0
   10.6512   -0.5004   16.3881 H   0  0  0  0  0  0  0  0  0  0  0  0
   10.3905   -1.7413   15.1837 H   0  0  0  0  0  0  0  0  0  0  0  0
   12.1056    0.1758   14.8223 H   0  0  0  0  0  0  0  0  0  0  0  0
   11.1612   -0.3645   13.4695 H   0  0  0  0  0  0  0  0  0  0  0  0
    9.6951    1.5496   13.5598 H   0  0  0  0  0  0  0  0  0  0  0  0
   11.3649    2.0776   13.5887 H   0  0  0  0  0  0  0  0  0  0  0  0
   11.1972    2.2379   16.1425 H   0  0  0  0  0  0  0  0  0  0  0  0
   10.3242    3.4226   15.1811 H   0  0  0  0  0  0  0  0  0  0  0  0
  1  2  1  0
  2  3  1  0
  3  4  2  0
  4  5  1  0
  5  6  2  0
  6  7  1  0
  7  8  2  0
  8  9  1  0
  9 10  2  0
 10 11  1  0
 11 12  1  0
 12 13  1  0
 13 14  1  0
 14 15  1  0
 15 16  2  0
 15 17  1  0
 17 18  1  0
 18 19  1  0
 19 20  2  0
 20 21  1  0
 21 22  1  0
 22 23  1  0
 23 24  1  0
 24 25  1  0
 25 26  1  0
  8  3  1  0
 21 17  2  0
 11  7  1  0
 26 20  1  0
  1 27  1  0
  1 28  1  0
  1 29  1  0
  4 30  1  0
  5 31  1  0
  6 32  1  0
  9 33  1  0
 10 34  1  0
 12 35  1  0
 12 36  1  0
 13 37  1  0
 13 38  1  0
 14 39  1  0
 18 40  1  0
 22 41  1  0
 22 42  1  0
 23 43  1  0
 23 44  1  0
 24 45  1  0
 24 46  1  0
 25 47  1  0
 25 48  1  0
 26 49  1  0
 26 50  1  0
M  END
>  <Energy>  (152) 
42.536811347808424

>  <compound_id>  (152) 
46197

>  <target_id>  (152) 
1

>  <reference_id>  (152) 
93

>  <inspiration_ids>  (152) 
[93, 99]

>  <energy_score>  (152) 
-11.205425779268495

>  <distance_score>  (152) 
9.590354780323594

>  <path>  (152) 
/opt/xchem-fragalysis-2/maxwin/BulkDock/SCRATCH/511023/C46197-P93/C46197-P93.minimised.mol

>  <scratch_subdir>  (152) 
/opt/xchem-fragalysis-2/maxwin/BulkDock/SCRATCH/511023/C46197-P93

>  <fragmenstein_runtime>  (152) 
17.02517557144165

>  <fragmenstein_outcome>  (152) 
too moved

>  <fragmenstein_mode>  (152) 
expansion

>  <fragmenstein_error>  (152) 


$$$$
C46197-P99
     RDKit          3D

 50 53  0  0  0  0  0  0  0  0999 V2000
   -6.2670    0.3181    6.8542 C   0  0  0  0  0  0  0  0  0  0  0  0
   -5.1628    0.3085    5.9367 O   0  0  0  0  0  0  0  0  0  0  0  0
   -4.3261   -0.7802    6.1925 C   0  0  0  0  0  0  0  0  0  0  0  0
   -4.8351   -1.9964    5.8394 C   0  0  0  0  0  0  0  0  0  0  0  0
   -4.3976   -3.0297    6.6062 C   0  0  0  0  0  0  0  0  0  0  0  0
   -3.2862   -2.9457    7.4827 C   0  0  0  0  0  0  0  0  0  0  0  0
   -2.4349   -1.7802    7.6126 C   0  0  0  0  0  0  0  0  0  0  0  0
   -3.1717   -0.6497    7.0479 C   0  0  0  0  0  0  0  0  0  0  0  0
   -2.8670    0.4350    7.8689 C   0  0  0  0  0  0  0  0  0  0  0  0
   -2.7097   -0.3153    8.9730 C   0  0  0  0  0  0  0  0  0  0  0  0
   -1.4050   -1.2419    8.7961 N   0  0  0  0  0  0  0  0  0  0  0  0
    0.4566   -1.3330    9.6467 C   0  0  0  0  0  0  0  0  0  0  0  0
    2.1038   -1.2218   10.9993 C   0  0  0  0  0  0  0  0  0  0  0  0
    3.9238   -0.2086   11.1383 N   0  0  0  0  0  0  0  0  0  0  0  0
    5.6491   -0.7297   11.9404 C   0  0  0  0  0  0  0  0  0  0  0  0
    5.8013   -1.8534   12.3670 O   0  0  0  0  0  0  0  0  0  0  0  0
    7.1103    0.2515   12.3443 C   0  0  0  0  0  0  0  0  0  0  0  0
    7.6493    1.4436   11.8082 N   0  0  0  0  0  0  0  0  0  0  0  0
    8.6180    2.0809   12.4405 N   0  0  0  0  0  0  0  0  0  0  0  0
    8.8255    1.3232   13.5008 C   0  0  0  0  0  0  0  0  0  0  0  0
    7.8519    0.2518   13.5722 C   0  0  0  0  0  0  0  0  0  0  0  0
    7.8199   -0.7330   14.6731 C   0  0  0  0  0  0  0  0  0  0  0  0
    8.9776   -0.5631   15.6609 C   0  0  0  0  0  0  0  0  0  0  0  0
   10.3917   -0.7607   15.1273 C   0  0  0  0  0  0  0  0  0  0  0  0
   10.9869    0.4773   14.4674 C   0  0  0  0  0  0  0  0  0  0  0  0
   10.0168    1.6479   14.3434 C   0  0  0  0  0  0  0  0  0  0  0  0
   -7.0206   -0.4185    6.5578 H   0  0  0  0  0  0  0  0  0  0  0  0
   -6.7268    1.3097    6.8057 H   0  0  0  0  0  0  0  0  0  0  0  0
   -5.9475    0.1444    7.8879 H   0  0  0  0  0  0  0  0  0  0  0  0
   -5.7211   -2.0882    5.2224 H   0  0  0  0  0  0  0  0  0  0  0  0
   -5.0485   -3.8857    6.6277 H   0  0  0  0  0  0  0  0  0  0  0  0
   -3.1875   -3.8106    8.1157 H   0  0  0  0  0  0  0  0  0  0  0  0
   -3.4772    1.3256    7.9251 H   0  0  0  0  0  0  0  0  0  0  0  0
   -3.6212   -0.8254    9.2978 H   0  0  0  0  0  0  0  0  0  0  0  0
   -0.1056   -1.1760   10.6219 H   0  0  0  0  0  0  0  0  0  0  0  0
    0.9837   -0.5295    9.1595 H   0  0  0  0  0  0  0  0  0  0  0  0
    2.6429   -2.1314   11.0549 H   0  0  0  0  0  0  0  0  0  0  0  0
    1.5477   -0.8663   11.8970 H   0  0  0  0  0  0  0  0  0  0  0  0
    4.0047    0.7362   10.7617 H   0  0  0  0  0  0  0  0  0  0  0  0
    7.4347    1.7312   10.8619 H   0  0  0  0  0  0  0  0  0  0  0  0
    6.8749   -0.6052   15.2134 H   0  0  0  0  0  0  0  0  0  0  0  0
    7.8219   -1.7545   14.2805 H   0  0  0  0  0  0  0  0  0  0  0  0
    8.8750    0.3580   16.2446 H   0  0  0  0  0  0  0  0  0  0  0  0
    8.8455   -1.3285   16.3804 H   0  0  0  0  0  0  0  0  0  0  0  0
   10.4294   -1.6190   14.4483 H   0  0  0  0  0  0  0  0  0  0  0  0
   11.0445   -1.0496   15.9589 H   0  0  0  0  0  0  0  0  0  0  0  0
   11.3771    0.2063   13.4782 H   0  0  0  0  0  0  0  0  0  0  0  0
   11.8568    0.8074   15.0487 H   0  0  0  0  0  0  0  0  0  0  0  0
    9.7021    2.0229   15.3233 H   0  0  0  0  0  0  0  0  0  0  0  0
   10.5682    2.4829   13.8889 H   0  0  0  0  0  0  0  0  0  0  0  0
  1  2  1  0
  2  3  1  0
  3  4  2  0
  4  5  1  0
  5  6  2  0
  6  7  1  0
  7  8  2  0
  8  9  1  0
  9 10  2  0
 10 11  1  0
 11 12  1  0
 12 13  1  0
 13 14  1  0
 14 15  1  0
 15 16  2  0
 15 17  1  0
 17 18  1  0
 18 19  1  0
 19 20  2  0
 20 21  1  0
 21 22  1  0
 22 23  1  0
 23 24  1  0
 24 25  1  0
 25 26  1  0
  8  3  1  0
 21 17  2  0
 11  7  1  0
 26 20  1  0
  1 27  1  0
  1 28  1  0
  1 29  1  0
  4 30  1  0
  5 31  1  0
  6 32  1  0
  9 33  1  0
 10 34  1  0
 12 35  1  0
 12 36  1  0
 13 37  1  0
 13 38  1  0
 14 39  1  0
 18 40  1  0
 22 41  1  0
 22 42  1  0
 23 43  1  0
 23 44  1  0
 24 45  1  0
 24 46  1  0
 25 47  1  0
 25 48  1  0
 26 49  1  0
 26 50  1  0
M  END
>  <Energy>  (153) 
801.44397597260956

>  <compound_id>  (153) 
46197

>  <target_id>  (153) 
1

>  <reference_id>  (153) 
99

>  <inspiration_ids>  (153) 
[93, 99]

>  <energy_score>  (153) 
747.7017388455388

>  <distance_score>  (153) 
7.631275343606921

>  <path>  (153) 
/opt/xchem-fragalysis-2/maxwin/BulkDock/SCRATCH/511023/C46197-P99/C46197-P99.minimised.mol

>  <scratch_subdir>  (153) 
/opt/xchem-fragalysis-2/maxwin/BulkDock/SCRATCH/511023/C46197-P99

>  <fragmenstein_runtime>  (153) 
9.836978912353516

>  <fragmenstein_outcome>  (153) 
too moved

>  <fragmenstein_mode>  (153) 
expansion

>  <fragmenstein_error>  (153) 


$$$$
C46198-P93
     RDKit          3D

 44 47  0  0  0  0  0  0  0  0999 V2000
   -3.2715   -1.8336    7.8727 C   0  0  0  0  0  0  0  0  0  0  0  0
   -1.9454   -1.4016    8.2158 O   0  0  0  0  0  0  0  0  0  0  0  0
   -1.7327   -0.7413    9.5644 C   0  0  0  0  0  0  0  0  0  0  0  0
   -3.4437   -0.1054    9.7453 C   0  0  0  0  0  0  0  0  0  0  0  0
   -4.0082   -0.2701   11.3953 C   0  0  0  0  0  0  0  0  0  0  0  0
   -2.3733   -0.3680   12.3821 C   0  0  0  0  0  0  0  0  0  0  0  0
   -0.5196   -0.2064   12.2604 C   0  0  0  0  0  0  0  0  0  0  0  0
   -0.1511   -1.0530   10.7616 C   0  0  0  0  0  0  0  0  0  0  0  0
    0.4505   -0.8006   12.5589 C   0  0  0  0  0  0  0  0  0  0  0  0
    1.1974   -0.9670   13.6734 C   0  0  0  0  0  0  0  0  0  0  0  0
    1.1623    0.2353   13.1738 N   0  0  0  0  0  0  0  0  0  0  0  0
    2.9696    1.0162   13.1746 C   0  0  0  0  0  0  0  0  0  0  0  0
    4.9284    0.5561   13.9624 C   0  0  0  0  0  0  0  0  0  0  0  0
    6.4609   -0.1567   14.1270 N   0  0  0  0  0  0  0  0  0  0  0  0
    7.3846   -0.1957   15.2795 C   0  0  0  0  0  0  0  0  0  0  0  0
    7.2435    0.1957   16.4042 O   0  0  0  0  0  0  0  0  0  0  0  0
    8.7361   -0.6806   15.0639 C   0  0  0  0  0  0  0  0  0  0  0  0
    9.1221   -1.9928   14.9635 N   0  0  0  0  0  0  0  0  0  0  0  0
   10.4425   -2.2295   15.2465 N   0  0  0  0  0  0  0  0  0  0  0  0
   10.9300   -1.0072   15.3055 C   0  0  0  0  0  0  0  0  0  0  0  0
    9.9453   -0.0240   15.2318 C   0  0  0  0  0  0  0  0  0  0  0  0
   10.5175    1.3126   15.4734 C   0  0  0  0  0  0  0  0  0  0  0  0
   12.0656    1.0370   15.4247 C   0  0  0  0  0  0  0  0  0  0  0  0
   12.2807   -0.5016   15.5844 C   0  0  0  0  0  0  0  0  0  0  0  0
   -3.2386   -2.8598    7.5114 H   0  0  0  0  0  0  0  0  0  0  0  0
   -3.9853   -1.8790    8.6727 H   0  0  0  0  0  0  0  0  0  0  0  0
   -3.6839   -1.1704    7.1105 H   0  0  0  0  0  0  0  0  0  0  0  0
   -4.1438    0.0270    8.9342 H   0  0  0  0  0  0  0  0  0  0  0  0
   -5.0163   -0.3966   11.7245 H   0  0  0  0  0  0  0  0  0  0  0  0
   -2.4479   -1.3427   12.8362 H   0  0  0  0  0  0  0  0  0  0  0  0
    0.0705   -1.6699   13.2919 H   0  0  0  0  0  0  0  0  0  0  0  0
    0.8907   -0.9705   14.7148 H   0  0  0  0  0  0  0  0  0  0  0  0
    3.0241    1.2069   12.0901 H   0  0  0  0  0  0  0  0  0  0  0  0
    2.5602    1.9083   13.6766 H   0  0  0  0  0  0  0  0  0  0  0  0
    5.1177   -0.4822   14.1385 H   0  0  0  0  0  0  0  0  0  0  0  0
    5.1475    0.7794   15.0521 H   0  0  0  0  0  0  0  0  0  0  0  0
    6.9444   -0.5064   13.2989 H   0  0  0  0  0  0  0  0  0  0  0  0
    8.5351   -2.7879   14.7439 H   0  0  0  0  0  0  0  0  0  0  0  0
   10.2269    2.0380   14.7082 H   0  0  0  0  0  0  0  0  0  0  0  0
   10.2251    1.6922   16.4571 H   0  0  0  0  0  0  0  0  0  0  0  0
   12.6066    1.6105   16.1842 H   0  0  0  0  0  0  0  0  0  0  0  0
   12.4490    1.3511   14.4449 H   0  0  0  0  0  0  0  0  0  0  0  0
   13.0288   -0.8715   14.8782 H   0  0  0  0  0  0  0  0  0  0  0  0
   12.5919   -0.7434   16.6048 H   0  0  0  0  0  0  0  0  0  0  0  0
  1  2  1  0
  2  3  1  0
  3  4  2  0
  4  5  1  0
  5  6  2  0
  6  7  1  0
  7  8  2  0
  8  9  1  0
  9 10  2  0
 10 11  1  0
 11 12  1  0
 12 13  1  0
 13 14  1  0
 14 15  1  0
 15 16  2  0
 15 17  1  0
 17 18  1  0
 18 19  1  0
 19 20  2  0
 20 21  1  0
 21 22  1  0
 22 23  1  0
 23 24  1  0
  8  3  1  0
 21 17  2  0
 11  7  1  0
 24 20  1  0
  1 25  1  0
  1 26  1  0
  1 27  1  0
  4 28  1  0
  5 29  1  0
  6 30  1  0
  9 31  1  0
 10 32  1  0
 12 33  1  0
 12 34  1  0
 13 35  1  0
 13 36  1  0
 14 37  1  0
 18 38  1  0
 22 39  1  0
 22 40  1  0
 23 41  1  0
 23 42  1  0
 24 43  1  0
 24 44  1  0
M  END
>  <Energy>  (154) 
1403.8627221899012

>  <compound_id>  (154) 
46198

>  <target_id>  (154) 
1

>  <reference_id>  (154) 
93

>  <inspiration_ids>  (154) 
[93, 99]

>  <energy_score>  (154) 
1348.8729444968963

>  <distance_score>  (154) 
6.582823749384995

>  <path>  (154) 
/opt/xchem-fragalysis-2/maxwin/BulkDock/SCRATCH/511023/C46198-P93/C46198-P93.minimised.mol

>  <scratch_subdir>  (154) 
/opt/xchem-fragalysis-2/maxwin/BulkDock/SCRATCH/511023/C46198-P93

>  <fragmenstein_runtime>  (154) 
12.377514839172363

>  <fragmenstein_outcome>  (154) 
too moved

>  <fragmenstein_mode>  (154) 
expansion

>  <fragmenstein_error>  (154) 


$$$$
C46198-P99
     RDKit          3D

 44 47  0  0  0  0  0  0  0  0999 V2000
   -6.6185    0.0799   11.5371 C   0  0  0  0  0  0  0  0  0  0  0  0
   -5.3590   -0.4116   12.0357 O   0  0  0  0  0  0  0  0  0  0  0  0
   -3.9342   -0.1576   11.5443 C   0  0  0  0  0  0  0  0  0  0  0  0
   -4.1934   -0.2149    9.7804 C   0  0  0  0  0  0  0  0  0  0  0  0
   -3.2810   -0.7252    8.8063 C   0  0  0  0  0  0  0  0  0  0  0  0
   -1.9689   -1.2458    9.3117 C   0  0  0  0  0  0  0  0  0  0  0  0
   -1.0372   -1.0941   11.0462 C   0  0  0  0  0  0  0  0  0  0  0  0
   -2.1960   -0.7184   12.2755 C   0  0  0  0  0  0  0  0  0  0  0  0
   -0.9571    0.0543   12.5951 C   0  0  0  0  0  0  0  0  0  0  0  0
    0.1845   -0.7045   12.9561 C   0  0  0  0  0  0  0  0  0  0  0  0
    0.6588   -1.0265   11.7135 N   0  0  0  0  0  0  0  0  0  0  0  0
    2.2596    0.0012   11.6457 C   0  0  0  0  0  0  0  0  0  0  0  0
    4.1302    0.0823   11.0429 C   0  0  0  0  0  0  0  0  0  0  0  0
    5.6632   -0.6229   12.1023 N   0  0  0  0  0  0  0  0  0  0  0  0
    6.8095    0.1293   12.9075 C   0  0  0  0  0  0  0  0  0  0  0  0
    7.0625    1.3196   12.9875 O   0  0  0  0  0  0  0  0  0  0  0  0
    7.6402   -0.6531   13.7817 C   0  0  0  0  0  0  0  0  0  0  0  0
    7.4359   -1.9367   14.2004 N   0  0  0  0  0  0  0  0  0  0  0  0
    8.4352   -2.4280   14.9533 N   0  0  0  0  0  0  0  0  0  0  0  0
    9.2869   -1.4203   15.0247 C   0  0  0  0  0  0  0  0  0  0  0  0
    8.7733   -0.2536   14.4922 C   0  0  0  0  0  0  0  0  0  0  0  0
    9.7777    0.8341   14.5241 C   0  0  0  0  0  0  0  0  0  0  0  0
   11.1136    0.0324   14.7347 C   0  0  0  0  0  0  0  0  0  0  0  0
   10.7236   -1.3502   15.3517 C   0  0  0  0  0  0  0  0  0  0  0  0
   -7.3247   -0.6544   11.7996 H   0  0  0  0  0  0  0  0  0  0  0  0
   -6.8497    0.9947   12.0739 H   0  0  0  0  0  0  0  0  0  0  0  0
   -6.7843    0.1547   10.4550 H   0  0  0  0  0  0  0  0  0  0  0  0
   -5.1942   -0.0841    9.3701 H   0  0  0  0  0  0  0  0  0  0  0  0
   -3.5378   -0.8064    7.7570 H   0  0  0  0  0  0  0  0  0  0  0  0
   -1.3664   -1.4157    8.4740 H   0  0  0  0  0  0  0  0  0  0  0  0
   -1.0176    1.1076   12.9832 H   0  0  0  0  0  0  0  0  0  0  0  0
    0.8652   -0.5365   13.7505 H   0  0  0  0  0  0  0  0  0  0  0  0
    2.1122    0.3631   12.6632 H   0  0  0  0  0  0  0  0  0  0  0  0
    2.1272    1.0662   11.4838 H   0  0  0  0  0  0  0  0  0  0  0  0
    3.9449    1.1682   11.3966 H   0  0  0  0  0  0  0  0  0  0  0  0
    4.3336    0.5067   10.0572 H   0  0  0  0  0  0  0  0  0  0  0  0
    5.7942   -1.6263   12.1888 H   0  0  0  0  0  0  0  0  0  0  0  0
    6.6798   -2.5661   13.9634 H   0  0  0  0  0  0  0  0  0  0  0  0
    9.8147    1.4197   13.6018 H   0  0  0  0  0  0  0  0  0  0  0  0
    9.5953    1.4995   15.3741 H   0  0  0  0  0  0  0  0  0  0  0  0
   11.8358    0.5821   15.3437 H   0  0  0  0  0  0  0  0  0  0  0  0
   11.5809   -0.1372   13.7553 H   0  0  0  0  0  0  0  0  0  0  0  0
   11.2998   -2.1585   14.8921 H   0  0  0  0  0  0  0  0  0  0  0  0
   10.8909   -1.3611   16.4255 H   0  0  0  0  0  0  0  0  0  0  0  0
  1  2  1  0
  2  3  1  0
  3  4  2  0
  4  5  1  0
  5  6  2  0
  6  7  1  0
  7  8  2  0
  8  9  1  0
  9 10  2  0
 10 11  1  0
 11 12  1  0
 12 13  1  0
 13 14  1  0
 14 15  1  0
 15 16  2  0
 15 17  1  0
 17 18  1  0
 18 19  1  0
 19 20  2  0
 20 21  1  0
 21 22  1  0
 22 23  1  0
 23 24  1  0
  8  3  1  0
 21 17  2  0
 11  7  1  0
 24 20  1  0
  1 25  1  0
  1 26  1  0
  1 27  1  0
  4 28  1  0
  5 29  1  0
  6 30  1  0
  9 31  1  0
 10 32  1  0
 12 33  1  0
 12 34  1  0
 13 35  1  0
 13 36  1  0
 14 37  1  0
 18 38  1  0
 22 39  1  0
 22 40  1  0
 23 41  1  0
 23 42  1  0
 24 43  1  0
 24 44  1  0
M  END
>  <Energy>  (155) 
798.08017945210588

>  <compound_id>  (155) 
46198

>  <target_id>  (155) 
1

>  <reference_id>  (155) 
99

>  <inspiration_ids>  (155) 
[93, 99]

>  <energy_score>  (155) 
743.0904017591005

>  <distance_score>  (155) 
7.060713408713585

>  <path>  (155) 
/opt/xchem-fragalysis-2/maxwin/BulkDock/SCRATCH/511023/C46198-P99/C46198-P99.minimised.mol

>  <scratch_subdir>  (155) 
/opt/xchem-fragalysis-2/maxwin/BulkDock/SCRATCH/511023/C46198-P99

>  <fragmenstein_runtime>  (155) 
15.15168285369873

>  <fragmenstein_outcome>  (155) 
too moved

>  <fragmenstein_mode>  (155) 
expansion

>  <fragmenstein_error>  (155) 


$$$$
C25404-P93
     RDKit          2D

  0  0  0  0  0  0  0  0  0  0999 V2000
M  END
>  <compound_id>  (156) 
25404

>  <target_id>  (156) 
1

>  <reference_id>  (156) 
93

>  <inspiration_ids>  (156) 
[93, 99]

>  <energy_score>  (156) 
nan

>  <distance_score>  (156) 
nan

>  <path>  (156) 
/opt/xchem-fragalysis-2/maxwin/BulkDock/SCRATCH/511023/C25404-P93/C25404-P93.minimised.mol

>  <scratch_subdir>  (156) 
/opt/xchem-fragalysis-2/maxwin/BulkDock/SCRATCH/511023/C25404-P93

>  <fragmenstein_runtime>  (156) 
0.7376072406768799

>  <fragmenstein_outcome>  (156) 
too distant

>  <fragmenstein_mode>  (156) 
expansion

>  <fragmenstein_error>  (156) 
DistanceError: hit1

$$$$
C30256-P93
     RDKit          3D

 36 38  0  0  0  0  0  0  0  0999 V2000
    7.1501   -5.8587    8.1797 C   0  0  0  0  0  0  0  0  0  0  0  0
    8.3053   -6.2566    7.2683 C   0  0  0  0  0  0  0  0  0  0  0  0
    8.4211   -7.7725    7.2045 N   0  0  0  0  0  0  0  0  0  0  0  0
    9.8784   -7.4296    6.9051 C   0  0  0  0  0  0  0  0  0  0  0  0
   10.8456   -7.1082    8.0434 C   0  0  0  0  0  0  0  0  0  0  0  0
   10.9485   -7.7457    9.2615 C   0  0  0  0  0  0  0  0  0  0  0  0
   12.0480   -7.2602    9.9218 N   0  0  0  0  0  0  0  0  0  0  0  0
   12.6849   -6.3137    9.1691 C   0  0  0  0  0  0  0  0  0  0  0  0
   13.8740   -5.6220    9.4152 C   0  0  0  0  0  0  0  0  0  0  0  0
   14.3353   -4.7339    8.4498 C   0  0  0  0  0  0  0  0  0  0  0  0
   13.6024   -4.5221    7.2912 C   0  0  0  0  0  0  0  0  0  0  0  0
   12.4079   -5.2216    7.0582 C   0  0  0  0  0  0  0  0  0  0  0  0
   11.9390   -6.1580    8.0039 C   0  0  0  0  0  0  0  0  0  0  0  0
    7.3833   -8.3168    6.3469 C   0  0  0  0  0  0  0  0  0  0  0  0
    7.3904   -8.5482    5.1659 O   0  0  0  0  0  0  0  0  0  0  0  0
    6.0915   -8.6808    7.0681 C   0  0  0  0  0  0  0  0  0  0  0  0
    5.8677   -9.0463    8.4276 C   0  0  0  0  0  0  0  0  0  0  0  0
    4.5303   -9.3667    8.5329 C   0  0  0  0  0  0  0  0  0  0  0  0
    4.0077   -9.1686    7.2948 N   0  0  0  0  0  0  0  0  0  0  0  0
    4.9084   -8.7378    6.4003 N   0  0  0  0  0  0  0  0  0  0  0  0
    6.2062   -5.8676    7.6300 H   0  0  0  0  0  0  0  0  0  0  0  0
    7.0461   -6.5839    8.9826 H   0  0  0  0  0  0  0  0  0  0  0  0
    7.2926   -4.8571    8.5914 H   0  0  0  0  0  0  0  0  0  0  0  0
    8.0806   -5.8938    6.2572 H   0  0  0  0  0  0  0  0  0  0  0  0
    9.1220   -5.6608    7.6978 H   0  0  0  0  0  0  0  0  0  0  0  0
   10.2464   -8.4001    6.5311 H   0  0  0  0  0  0  0  0  0  0  0  0
   10.0185   -6.8046    6.0047 H   0  0  0  0  0  0  0  0  0  0  0  0
   10.3550   -8.5466    9.6822 H   0  0  0  0  0  0  0  0  0  0  0  0
   12.3903   -7.5794   10.8148 H   0  0  0  0  0  0  0  0  0  0  0  0
   14.4435   -5.7771   10.3143 H   0  0  0  0  0  0  0  0  0  0  0  0
   15.2631   -4.1920    8.6136 H   0  0  0  0  0  0  0  0  0  0  0  0
   13.9632   -3.8184    6.5446 H   0  0  0  0  0  0  0  0  0  0  0  0
   11.8709   -5.0633    6.1269 H   0  0  0  0  0  0  0  0  0  0  0  0
    6.6094   -9.1002    9.2122 H   0  0  0  0  0  0  0  0  0  0  0  0
    3.9284   -9.7101    9.3616 H   0  0  0  0  0  0  0  0  0  0  0  0
    3.0524   -9.3094    6.9844 H   0  0  0  0  0  0  0  0  0  0  0  0
  1  2  1  0
  2  3  1  0
  3  4  1  0
  4  5  1  0
  5  6  2  0
  6  7  1  0
  7  8  1  0
  8  9  2  0
  9 10  1  0
 10 11  2  0
 11 12  1  0
 12 13  2  0
  3 14  1  0
 14 15  2  0
 14 16  1  0
 16 17  1  0
 17 18  2  0
 18 19  1  0
 19 20  1  0
 13  5  1  0
 20 16  2  0
 13  8  1  0
  1 21  1  0
  1 22  1  0
  1 23  1  0
  2 24  1  0
  2 25  1  0
  4 26  1  0
  4 27  1  0
  6 28  1  0
  7 29  1  0
  9 30  1  0
 10 31  1  0
 11 32  1  0
 12 33  1  0
 17 34  1  0
 18 35  1  0
 19 36  1  0
M  END
>  <Energy>  (157) 
131.85391181277691

>  <compound_id>  (157) 
30256

>  <target_id>  (157) 
1

>  <reference_id>  (157) 
93

>  <inspiration_ids>  (157) 
[93, 99]

>  <energy_score>  (157) 
51.759156042597795

>  <distance_score>  (157) 
11.870736746227605

>  <path>  (157) 
/opt/xchem-fragalysis-2/maxwin/BulkDock/SCRATCH/511023/C30256-P93/C30256-P93.minimised.mol

>  <scratch_subdir>  (157) 
/opt/xchem-fragalysis-2/maxwin/BulkDock/SCRATCH/511023/C30256-P93

>  <fragmenstein_runtime>  (157) 
14.911456823348999

>  <fragmenstein_outcome>  (157) 
too moved

>  <fragmenstein_mode>  (157) 
expansion

>  <fragmenstein_error>  (157) 


$$$$
C30256-P99
     RDKit          3D

 36 38  0  0  0  0  0  0  0  0999 V2000
    8.2300    0.3341   12.9860 C   0  0  0  0  0  0  0  0  0  0  0  0
    7.1228   -0.9488   12.3551 C   0  0  0  0  0  0  0  0  0  0  0  0
    6.0433   -1.5764   13.1501 N   0  0  0  0  0  0  0  0  0  0  0  0
    7.3037   -2.0101   14.0759 C   0  0  0  0  0  0  0  0  0  0  0  0
    8.5859   -1.3631   14.9224 C   0  0  0  0  0  0  0  0  0  0  0  0
    8.5110   -0.2782   15.8104 C   0  0  0  0  0  0  0  0  0  0  0  0
    9.7594    0.2792   15.9253 N   0  0  0  0  0  0  0  0  0  0  0  0
   10.7043   -0.5645   15.4044 C   0  0  0  0  0  0  0  0  0  0  0  0
   12.0969   -0.4007   15.2990 C   0  0  0  0  0  0  0  0  0  0  0  0
   12.8765   -1.5021   14.9688 C   0  0  0  0  0  0  0  0  0  0  0  0
   12.2723   -2.7164   14.7239 C   0  0  0  0  0  0  0  0  0  0  0  0
   10.8732   -2.8134   14.6976 C   0  0  0  0  0  0  0  0  0  0  0  0
   10.0282   -1.7117   14.9801 C   0  0  0  0  0  0  0  0  0  0  0  0
    4.9136   -2.6299   12.0404 C   0  0  0  0  0  0  0  0  0  0  0  0
    5.0719   -3.7975   11.8110 O   0  0  0  0  0  0  0  0  0  0  0  0
    3.3150   -2.0678   11.2701 C   0  0  0  0  0  0  0  0  0  0  0  0
    1.7205   -1.1639   11.6493 C   0  0  0  0  0  0  0  0  0  0  0  0
    0.6546   -1.5174   10.9587 C   0  0  0  0  0  0  0  0  0  0  0  0
    1.4786   -1.3809    9.8811 N   0  0  0  0  0  0  0  0  0  0  0  0
    2.9409   -2.4114   10.0628 N   0  0  0  0  0  0  0  0  0  0  0  0
    8.3950    1.0565   12.2403 H   0  0  0  0  0  0  0  0  0  0  0  0
    8.0604    0.8226   13.9229 H   0  0  0  0  0  0  0  0  0  0  0  0
    9.2926    0.2418   13.2540 H   0  0  0  0  0  0  0  0  0  0  0  0
    6.5050   -0.3827   11.7081 H   0  0  0  0  0  0  0  0  0  0  0  0
    7.4220   -1.5788   11.5388 H   0  0  0  0  0  0  0  0  0  0  0  0
    6.9466   -2.8265   14.6556 H   0  0  0  0  0  0  0  0  0  0  0  0
    6.7435   -1.3905   14.7995 H   0  0  0  0  0  0  0  0  0  0  0  0
    7.6554    0.2735   16.1815 H   0  0  0  0  0  0  0  0  0  0  0  0
    9.9576    1.1839   16.3352 H   0  0  0  0  0  0  0  0  0  0  0  0
   12.5760    0.5444   15.5305 H   0  0  0  0  0  0  0  0  0  0  0  0
   13.9598   -1.4182   14.9456 H   0  0  0  0  0  0  0  0  0  0  0  0
   12.8781   -3.5994   14.5401 H   0  0  0  0  0  0  0  0  0  0  0  0
   10.4683   -3.7972   14.5286 H   0  0  0  0  0  0  0  0  0  0  0  0
    1.4890   -0.6061   12.5786 H   0  0  0  0  0  0  0  0  0  0  0  0
   -0.3674   -1.2055   11.1348 H   0  0  0  0  0  0  0  0  0  0  0  0
    1.1129   -1.2752    8.9273 H   0  0  0  0  0  0  0  0  0  0  0  0
  1  2  1  0
  2  3  1  0
  3  4  1  0
  4  5  1  0
  5  6  2  0
  6  7  1  0
  7  8  1  0
  8  9  2  0
  9 10  1  0
 10 11  2  0
 11 12  1  0
 12 13  2  0
  3 14  1  0
 14 15  2  0
 14 16  1  0
 16 17  1  0
 17 18  2  0
 18 19  1  0
 19 20  1  0
 13  5  1  0
 20 16  2  0
 13  8  1  0
  1 21  1  0
  1 22  1  0
  1 23  1  0
  2 24  1  0
  2 25  1  0
  4 26  1  0
  4 27  1  0
  6 28  1  0
  7 29  1  0
  9 30  1  0
 10 31  1  0
 11 32  1  0
 12 33  1  0
 17 34  1  0
 18 35  1  0
 19 36  1  0
M  END
>  <Energy>  (158) 
525.417855628501

>  <compound_id>  (158) 
30256

>  <target_id>  (158) 
1

>  <reference_id>  (158) 
99

>  <inspiration_ids>  (158) 
[93, 99]

>  <energy_score>  (158) 
445.3230998583223

>  <distance_score>  (158) 
7.7863539341984485

>  <path>  (158) 
/opt/xchem-fragalysis-2/maxwin/BulkDock/SCRATCH/511023/C30256-P99/C30256-P99.minimised.mol

>  <scratch_subdir>  (158) 
/opt/xchem-fragalysis-2/maxwin/BulkDock/SCRATCH/511023/C30256-P99

>  <fragmenstein_runtime>  (158) 
5.661035776138306

>  <fragmenstein_outcome>  (158) 
too moved

>  <fragmenstein_mode>  (158) 
expansion

>  <fragmenstein_error>  (158) 


$$$$
C30257-P93
     RDKit          2D

  0  0  0  0  0  0  0  0  0  0999 V2000
M  END
>  <compound_id>  (159) 
30257

>  <target_id>  (159) 
1

>  <reference_id>  (159) 
93

>  <inspiration_ids>  (159) 
[93, 99]

>  <energy_score>  (159) 
nan

>  <distance_score>  (159) 
nan

>  <path>  (159) 
/opt/xchem-fragalysis-2/maxwin/BulkDock/SCRATCH/511023/C30257-P93/C30257-P93.minimised.mol

>  <scratch_subdir>  (159) 
/opt/xchem-fragalysis-2/maxwin/BulkDock/SCRATCH/511023/C30257-P93

>  <fragmenstein_runtime>  (159) 
0.8162553310394287

>  <fragmenstein_outcome>  (159) 
too distant

>  <fragmenstein_mode>  (159) 
expansion

>  <fragmenstein_error>  (159) 
DistanceError: hit1

$$$$
C30258-P93
     RDKit          3D

 40 42  0  0  0  0  0  0  0  0999 V2000
    2.9563    1.3958    8.5570 C   0  0  0  0  0  0  0  0  0  0  0  0
    2.1049    0.8436    9.9175 N   0  0  0  0  0  0  0  0  0  0  0  0
    3.9866    0.8174   10.4239 C   0  0  0  0  0  0  0  0  0  0  0  0
    5.4707   -0.4906   11.0321 C   0  0  0  0  0  0  0  0  0  0  0  0
    6.4235   -0.9753   12.5977 N   0  0  0  0  0  0  0  0  0  0  0  0
    7.7850   -0.5218   13.1287 C   0  0  0  0  0  0  0  0  0  0  0  0
    8.5946    0.2408   12.6577 O   0  0  0  0  0  0  0  0  0  0  0  0
    8.2700   -0.9993   14.6342 C   0  0  0  0  0  0  0  0  0  0  0  0
    7.9594   -0.1540   15.7150 C   0  0  0  0  0  0  0  0  0  0  0  0
    9.0943    0.6059   15.9716 N   0  0  0  0  0  0  0  0  0  0  0  0
   10.2003   -0.1236   15.6562 C   0  0  0  0  0  0  0  0  0  0  0  0
   11.5593    0.1237   15.8952 C   0  0  0  0  0  0  0  0  0  0  0  0
   12.4596   -0.9209   15.7006 C   0  0  0  0  0  0  0  0  0  0  0  0
   12.0111   -2.1511   15.2571 C   0  0  0  0  0  0  0  0  0  0  0  0
   10.6627   -2.3246   14.9143 C   0  0  0  0  0  0  0  0  0  0  0  0
    9.7057   -1.2795   15.0566 C   0  0  0  0  0  0  0  0  0  0  0  0
    0.7806   -0.6010    9.8349 C   0  0  0  0  0  0  0  0  0  0  0  0
    1.2084   -1.6858   10.0300 O   0  0  0  0  0  0  0  0  0  0  0  0
   -1.2736   -0.7311    9.2882 C   0  0  0  0  0  0  0  0  0  0  0  0
   -2.5480    0.1049    9.0483 C   0  0  0  0  0  0  0  0  0  0  0  0
   -3.6551   -0.5552    8.5454 C   0  0  0  0  0  0  0  0  0  0  0  0
   -3.0914   -1.6914    8.1825 N   0  0  0  0  0  0  0  0  0  0  0  0
   -1.7681   -1.6308    8.2540 N   0  0  0  0  0  0  0  0  0  0  0  0
    2.4604    1.1000    7.6637 H   0  0  0  0  0  0  0  0  0  0  0  0
    4.0433    1.3238    8.4203 H   0  0  0  0  0  0  0  0  0  0  0  0
    2.7666    2.4767    8.6364 H   0  0  0  0  0  0  0  0  0  0  0  0
    3.6674    1.0711   11.4478 H   0  0  0  0  0  0  0  0  0  0  0  0
    4.4219    1.8053   10.1720 H   0  0  0  0  0  0  0  0  0  0  0  0
    6.4008   -0.9348   10.5770 H   0  0  0  0  0  0  0  0  0  0  0  0
    6.1979    0.0666   10.2892 H   0  0  0  0  0  0  0  0  0  0  0  0
    6.0595   -1.6717   13.1940 H   0  0  0  0  0  0  0  0  0  0  0  0
    7.0439    0.2814   16.0656 H   0  0  0  0  0  0  0  0  0  0  0  0
    9.1082    1.4919   16.4602 H   0  0  0  0  0  0  0  0  0  0  0  0
   11.9068    1.0808   16.2735 H   0  0  0  0  0  0  0  0  0  0  0  0
   13.5155   -0.7744   15.9151 H   0  0  0  0  0  0  0  0  0  0  0  0
   12.7072   -2.9747   15.1305 H   0  0  0  0  0  0  0  0  0  0  0  0
   10.3663   -3.2866   14.5237 H   0  0  0  0  0  0  0  0  0  0  0  0
   -2.7015    1.1318    9.2171 H   0  0  0  0  0  0  0  0  0  0  0  0
   -4.6789   -0.2751    8.3478 H   0  0  0  0  0  0  0  0  0  0  0  0
   -3.5068   -2.4875    7.7112 H   0  0  0  0  0  0  0  0  0  0  0  0
  1  2  1  0
  2  3  1  0
  3  4  1  0
  4  5  1  0
  5  6  1  0
  6  7  2  0
  6  8  1  0
  8  9  2  0
  9 10  1  0
 10 11  1  0
 11 12  2  0
 12 13  1  0
 13 14  2  0
 14 15  1  0
 15 16  2  0
  2 17  1  0
 17 18  2  0
 17 19  1  0
 19 20  1  0
 20 21  2  0
 21 22  1  0
 22 23  1  0
 16  8  1  0
 23 19  2  0
 16 11  1  0
  1 24  1  0
  1 25  1  0
  1 26  1  0
  3 27  1  0
  3 28  1  0
  4 29  1  0
  4 30  1  0
  5 31  1  0
  9 32  1  0
 10 33  1  0
 12 34  1  0
 13 35  1  0
 14 36  1  0
 15 37  1  0
 20 38  1  0
 21 39  1  0
 22 40  1  0
M  END
>  <Energy>  (160) 
840.83905677564167

>  <compound_id>  (160) 
30258

>  <target_id>  (160) 
1

>  <reference_id>  (160) 
93

>  <inspiration_ids>  (160) 
[93, 99]

>  <energy_score>  (160) 
756.9233547535521

>  <distance_score>  (160) 
6.561868235986238

>  <path>  (160) 
/opt/xchem-fragalysis-2/maxwin/BulkDock/SCRATCH/511023/C30258-P93/C30258-P93.minimised.mol

>  <scratch_subdir>  (160) 
/opt/xchem-fragalysis-2/maxwin/BulkDock/SCRATCH/511023/C30258-P93

>  <fragmenstein_runtime>  (160) 
14.608469009399414

>  <fragmenstein_outcome>  (160) 
too moved

>  <fragmenstein_mode>  (160) 
expansion

>  <fragmenstein_error>  (160) 


$$$$
C30258-P99
     RDKit          3D

 40 42  0  0  0  0  0  0  0  0999 V2000
    3.1673   -3.5891   12.5510 C   0  0  0  0  0  0  0  0  0  0  0  0
    3.3217   -2.5389   11.4164 N   0  0  0  0  0  0  0  0  0  0  0  0
    5.1212   -2.4749   12.1467 C   0  0  0  0  0  0  0  0  0  0  0  0
    6.0866   -1.9605   13.7501 C   0  0  0  0  0  0  0  0  0  0  0  0
    7.5096   -1.6341   14.0083 N   0  0  0  0  0  0  0  0  0  0  0  0
    8.1215   -0.8236   15.0345 C   0  0  0  0  0  0  0  0  0  0  0  0
    7.6418   -0.2755   15.9824 O   0  0  0  0  0  0  0  0  0  0  0  0
    9.5826   -0.5552   14.8874 C   0  0  0  0  0  0  0  0  0  0  0  0
   10.0621    0.7494   14.8408 C   0  0  0  0  0  0  0  0  0  0  0  0
   11.4273    0.7333   14.8162 N   0  0  0  0  0  0  0  0  0  0  0  0
   11.8876   -0.5527   14.9213 C   0  0  0  0  0  0  0  0  0  0  0  0
   13.2064   -1.0179   15.0316 C   0  0  0  0  0  0  0  0  0  0  0  0
   13.4089   -2.3892   15.1762 C   0  0  0  0  0  0  0  0  0  0  0  0
   12.3318   -3.2592   15.1825 C   0  0  0  0  0  0  0  0  0  0  0  0
   11.0285   -2.7685   15.0349 C   0  0  0  0  0  0  0  0  0  0  0  0
   10.7667   -1.3894   14.9319 C   0  0  0  0  0  0  0  0  0  0  0  0
    1.8854   -1.2759   11.4654 C   0  0  0  0  0  0  0  0  0  0  0  0
    1.9177   -0.1930   12.1137 O   0  0  0  0  0  0  0  0  0  0  0  0
    0.3623   -1.4835   10.7984 C   0  0  0  0  0  0  0  0  0  0  0  0
    0.2637   -1.3349    9.4427 C   0  0  0  0  0  0  0  0  0  0  0  0
   -1.3035   -1.3164    8.5351 C   0  0  0  0  0  0  0  0  0  0  0  0
   -2.0193   -1.2969    9.4985 N   0  0  0  0  0  0  0  0  0  0  0  0
   -0.9992   -1.1301   11.0936 N   0  0  0  0  0  0  0  0  0  0  0  0
    3.4206   -3.2204   13.4970 H   0  0  0  0  0  0  0  0  0  0  0  0
    2.1887   -3.9931   12.7550 H   0  0  0  0  0  0  0  0  0  0  0  0
    3.6663   -4.4968   12.1907 H   0  0  0  0  0  0  0  0  0  0  0  0
    5.3080   -3.4705   11.8104 H   0  0  0  0  0  0  0  0  0  0  0  0
    5.9647   -1.8181   11.7723 H   0  0  0  0  0  0  0  0  0  0  0  0
    5.6333   -2.4221   14.6237 H   0  0  0  0  0  0  0  0  0  0  0  0
    5.8952   -0.8821   13.7658 H   0  0  0  0  0  0  0  0  0  0  0  0
    8.2087   -1.8660   13.3110 H   0  0  0  0  0  0  0  0  0  0  0  0
    9.5266    1.6898   14.8480 H   0  0  0  0  0  0  0  0  0  0  0  0
   12.0201    1.5518   14.7996 H   0  0  0  0  0  0  0  0  0  0  0  0
   14.0496   -0.3339   15.0322 H   0  0  0  0  0  0  0  0  0  0  0  0
   14.4171   -2.7810   15.2889 H   0  0  0  0  0  0  0  0  0  0  0  0
   12.4945   -4.3287   15.3079 H   0  0  0  0  0  0  0  0  0  0  0  0
   10.2096   -3.4691   15.0260 H   0  0  0  0  0  0  0  0  0  0  0  0
    1.2331   -1.2477    9.0222 H   0  0  0  0  0  0  0  0  0  0  0  0
   -1.6379   -1.1960    7.4902 H   0  0  0  0  0  0  0  0  0  0  0  0
   -2.9897   -0.9948    9.5802 H   0  0  0  0  0  0  0  0  0  0  0  0
  1  2  1  0
  2  3  1  0
  3  4  1  0
  4  5  1  0
  5  6  1  0
  6  7  2  0
  6  8  1  0
  8  9  2  0
  9 10  1  0
 10 11  1  0
 11 12  2  0
 12 13  1  0
 13 14  2  0
 14 15  1  0
 15 16  2  0
  2 17  1  0
 17 18  2  0
 17 19  1  0
 19 20  1  0
 20 21  2  0
 21 22  1  0
 22 23  1  0
 16  8  1  0
 23 19  2  0
 16 11  1  0
  1 24  1  0
  1 25  1  0
  1 26  1  0
  3 27  1  0
  3 28  1  0
  4 29  1  0
  4 30  1  0
  5 31  1  0
  9 32  1  0
 10 33  1  0
 12 34  1  0
 13 35  1  0
 14 36  1  0
 15 37  1  0
 20 38  1  0
 21 39  1  0
 22 40  1  0
M  END
>  <Energy>  (161) 
595.01266634795411

>  <compound_id>  (161) 
30258

>  <target_id>  (161) 
1

>  <reference_id>  (161) 
99

>  <inspiration_ids>  (161) 
[93, 99]

>  <energy_score>  (161) 
511.0969643258581

>  <distance_score>  (161) 
6.817803816224576

>  <path>  (161) 
/opt/xchem-fragalysis-2/maxwin/BulkDock/SCRATCH/511023/C30258-P99/C30258-P99.minimised.mol

>  <scratch_subdir>  (161) 
/opt/xchem-fragalysis-2/maxwin/BulkDock/SCRATCH/511023/C30258-P99

>  <fragmenstein_runtime>  (161) 
18.947776317596436

>  <fragmenstein_outcome>  (161) 
too moved

>  <fragmenstein_mode>  (161) 
expansion

>  <fragmenstein_error>  (161) 


$$$$
C30259-P93
     RDKit          3D

 43 45  0  0  0  0  0  0  0  0999 V2000
   15.2094   -1.6802   16.0973 C   0  0  0  0  0  0  0  0  0  0  0  0
   13.7767   -1.3876   15.7640 C   0  0  0  0  0  0  0  0  0  0  0  0
   13.2847   -0.0853   15.8108 C   0  0  0  0  0  0  0  0  0  0  0  0
   11.9358    0.1909   15.5706 C   0  0  0  0  0  0  0  0  0  0  0  0
   11.0872   -0.8824   15.2826 C   0  0  0  0  0  0  0  0  0  0  0  0
    9.7290   -0.9053   15.1055 N   0  0  0  0  0  0  0  0  0  0  0  0
    9.2836   -2.1917   14.9300 C   0  0  0  0  0  0  0  0  0  0  0  0
   10.3810   -3.0469   14.8422 C   0  0  0  0  0  0  0  0  0  0  0  0
   10.3915   -4.5477   14.9584 C   0  0  0  0  0  0  0  0  0  0  0  0
   11.3636   -4.9095   15.6222 O   0  0  0  0  0  0  0  0  0  0  0  0
    9.0486   -5.6000   14.3178 N   0  0  0  0  0  0  0  0  0  0  0  0
    8.6937   -7.3930   14.5741 C   0  0  0  0  0  0  0  0  0  0  0  0
    7.4253   -8.6728   13.9031 C   0  0  0  0  0  0  0  0  0  0  0  0
    5.6081   -8.4417   13.0727 N   0  0  0  0  0  0  0  0  0  0  0  0
    6.8391   -8.4336   13.3940 C   0  0  0  0  0  0  0  0  0  0  0  0
    4.8652   -9.3158   12.1815 C   0  0  0  0  0  0  0  0  0  0  0  0
    5.1898  -10.3213   11.6218 O   0  0  0  0  0  0  0  0  0  0  0  0
    3.4467   -8.8205   11.9530 C   0  0  0  0  0  0  0  0  0  0  0  0
    2.5717   -9.2437   10.8935 C   0  0  0  0  0  0  0  0  0  0  0  0
    1.3624   -8.6279   11.1099 C   0  0  0  0  0  0  0  0  0  0  0  0
    1.5320   -7.9106   12.2512 N   0  0  0  0  0  0  0  0  0  0  0  0
    2.7865   -7.9396   12.7392 N   0  0  0  0  0  0  0  0  0  0  0  0
   11.5328   -2.1960   15.1624 C   0  0  0  0  0  0  0  0  0  0  0  0
   12.8978   -2.4381   15.4597 C   0  0  0  0  0  0  0  0  0  0  0  0
   15.3086   -1.8924   17.1663 H   0  0  0  0  0  0  0  0  0  0  0  0
   15.5736   -2.5426   15.5288 H   0  0  0  0  0  0  0  0  0  0  0  0
   15.8518   -0.8303   15.8444 H   0  0  0  0  0  0  0  0  0  0  0  0
   13.9527    0.7382   16.0572 H   0  0  0  0  0  0  0  0  0  0  0  0
   11.5644    1.2084   15.6387 H   0  0  0  0  0  0  0  0  0  0  0  0
    9.1429   -0.0837   15.1013 H   0  0  0  0  0  0  0  0  0  0  0  0
    8.2262   -2.3943   14.8307 H   0  0  0  0  0  0  0  0  0  0  0  0
    8.4240   -5.0900   13.9355 H   0  0  0  0  0  0  0  0  0  0  0  0
    9.4228   -8.1696   14.5105 H   0  0  0  0  0  0  0  0  0  0  0  0
    9.3152   -7.5210   15.4242 H   0  0  0  0  0  0  0  0  0  0  0  0
    7.1132   -9.2355   14.9553 H   0  0  0  0  0  0  0  0  0  0  0  0
    8.0571   -9.7032   13.5753 H   0  0  0  0  0  0  0  0  0  0  0  0
    6.1154   -7.6497   14.1325 H   0  0  0  0  0  0  0  0  0  0  0  0
    6.9775   -9.0190   12.2769 H   0  0  0  0  0  0  0  0  0  0  0  0
    7.1674   -7.5151   12.5964 H   0  0  0  0  0  0  0  0  0  0  0  0
    2.8188   -9.9390   10.1028 H   0  0  0  0  0  0  0  0  0  0  0  0
    0.4181   -8.6635   10.5858 H   0  0  0  0  0  0  0  0  0  0  0  0
    0.8419   -7.3615   12.7514 H   0  0  0  0  0  0  0  0  0  0  0  0
   13.2640   -3.4596   15.4865 H   0  0  0  0  0  0  0  0  0  0  0  0
  1  2  1  0
  2  3  2  0
  3  4  1  0
  4  5  2  0
  5  6  1  0
  6  7  1  0
  7  8  2  0
  8  9  1  0
  9 10  2  0
  9 11  1  0
 11 12  1  0
 12 13  1  0
 13 14  1  0
 14 15  1  0
 14 16  1  0
 16 17  2  0
 16 18  1  0
 18 19  1  0
 19 20  2  0
 20 21  1  0
 21 22  1  0
  8 23  1  0
 23 24  2  0
 24  2  1  0
 23  5  1  0
 22 18  2  0
  1 25  1  0
  1 26  1  0
  1 27  1  0
  3 28  1  0
  4 29  1  0
  6 30  1  0
  7 31  1  0
 11 32  1  0
 12 33  1  0
 12 34  1  0
 13 35  1  0
 13 36  1  0
 15 37  1  0
 15 38  1  0
 15 39  1  0
 19 40  1  0
 20 41  1  0
 21 42  1  0
 24 43  1  0
M  END
>  <Energy>  (162) 
1090.4855344773036

>  <compound_id>  (162) 
30259

>  <target_id>  (162) 
1

>  <reference_id>  (162) 
93

>  <inspiration_ids>  (162) 
[93, 99]

>  <energy_score>  (162) 
998.7788844342042

>  <distance_score>  (162) 
8.918805549482702

>  <path>  (162) 
/opt/xchem-fragalysis-2/maxwin/BulkDock/SCRATCH/511023/C30259-P93/C30259-P93.minimised.mol

>  <scratch_subdir>  (162) 
/opt/xchem-fragalysis-2/maxwin/BulkDock/SCRATCH/511023/C30259-P93

>  <fragmenstein_runtime>  (162) 
12.093387603759766

>  <fragmenstein_outcome>  (162) 
too moved

>  <fragmenstein_mode>  (162) 
expansion

>  <fragmenstein_error>  (162) 


$$$$
C30259-P99
     RDKit          3D

 43 45  0  0  0  0  0  0  0  0999 V2000
   14.2212    1.5754   13.9596 C   0  0  0  0  0  0  0  0  0  0  0  0
   12.8973    1.0095   14.3841 C   0  0  0  0  0  0  0  0  0  0  0  0
   12.7378   -0.3733   14.4978 C   0  0  0  0  0  0  0  0  0  0  0  0
   11.5203   -0.9257   14.8906 C   0  0  0  0  0  0  0  0  0  0  0  0
   10.4762   -0.0429   15.1937 C   0  0  0  0  0  0  0  0  0  0  0  0
    9.1861   -0.3188   15.5416 N   0  0  0  0  0  0  0  0  0  0  0  0
    8.5159    0.8332   15.8560 C   0  0  0  0  0  0  0  0  0  0  0  0
    9.2901    1.9323   15.5248 C   0  0  0  0  0  0  0  0  0  0  0  0
    8.9153    3.4016   15.5038 C   0  0  0  0  0  0  0  0  0  0  0  0
    9.8255    4.1343   15.2501 O   0  0  0  0  0  0  0  0  0  0  0  0
    7.4989    3.6827   15.6985 N   0  0  0  0  0  0  0  0  0  0  0  0
    6.7402    4.9258   15.5491 C   0  0  0  0  0  0  0  0  0  0  0  0
    5.0173    5.0755   16.0456 C   0  0  0  0  0  0  0  0  0  0  0  0
    3.4072    4.7901   14.9399 N   0  0  0  0  0  0  0  0  0  0  0  0
    4.5132    5.2991   15.4318 C   0  0  0  0  0  0  0  0  0  0  0  0
    2.2295    5.7181   14.3225 C   0  0  0  0  0  0  0  0  0  0  0  0
    2.0733    6.8620   14.2898 O   0  0  0  0  0  0  0  0  0  0  0  0
    1.1827    4.7978   13.7085 C   0  0  0  0  0  0  0  0  0  0  0  0
    0.8316    3.4676   14.0984 C   0  0  0  0  0  0  0  0  0  0  0  0
   -0.2526    3.1120   13.3302 C   0  0  0  0  0  0  0  0  0  0  0  0
   -0.4267    4.1322   12.4482 N   0  0  0  0  0  0  0  0  0  0  0  0
    0.3705    5.1843   12.6931 N   0  0  0  0  0  0  0  0  0  0  0  0
   10.5793    1.3486   15.1290 C   0  0  0  0  0  0  0  0  0  0  0  0
   11.8231    1.8693   14.6965 C   0  0  0  0  0  0  0  0  0  0  0  0
   14.1289    2.6250   13.6618 H   0  0  0  0  0  0  0  0  0  0  0  0
   14.9380    1.5113   14.7840 H   0  0  0  0  0  0  0  0  0  0  0  0
   14.6141    1.0245   13.0986 H   0  0  0  0  0  0  0  0  0  0  0  0
   13.5653   -1.0389   14.2598 H   0  0  0  0  0  0  0  0  0  0  0  0
   11.3906   -2.0026   14.9356 H   0  0  0  0  0  0  0  0  0  0  0  0
    8.7885   -1.2461   15.5175 H   0  0  0  0  0  0  0  0  0  0  0  0
    7.5082    0.7540   16.2157 H   0  0  0  0  0  0  0  0  0  0  0  0
    7.0263    2.8276   15.9835 H   0  0  0  0  0  0  0  0  0  0  0  0
    6.8775    5.2750   14.5174 H   0  0  0  0  0  0  0  0  0  0  0  0
    7.2592    5.6583   16.1817 H   0  0  0  0  0  0  0  0  0  0  0  0
    4.9804    4.0399   16.6658 H   0  0  0  0  0  0  0  0  0  0  0  0
    4.9753    5.7584   17.0843 H   0  0  0  0  0  0  0  0  0  0  0  0
    4.8701    5.0540   14.2678 H   0  0  0  0  0  0  0  0  0  0  0  0
    3.7468    6.2401   15.8484 H   0  0  0  0  0  0  0  0  0  0  0  0
    4.8256    6.4004   14.8480 H   0  0  0  0  0  0  0  0  0  0  0  0
    1.2958    2.8900   14.8848 H   0  0  0  0  0  0  0  0  0  0  0  0
   -0.8723    2.2321   13.3221 H   0  0  0  0  0  0  0  0  0  0  0  0
   -1.0759    4.1992   11.6674 H   0  0  0  0  0  0  0  0  0  0  0  0
   11.9464    2.9469   14.6181 H   0  0  0  0  0  0  0  0  0  0  0  0
  1  2  1  0
  2  3  2  0
  3  4  1  0
  4  5  2  0
  5  6  1  0
  6  7  1  0
  7  8  2  0
  8  9  1  0
  9 10  2  0
  9 11  1  0
 11 12  1  0
 12 13  1  0
 13 14  1  0
 14 15  1  0
 14 16  1  0
 16 17  2  0
 16 18  1  0
 18 19  1  0
 19 20  2  0
 20 21  1  0
 21 22  1  0
  8 23  1  0
 23 24  2  0
 24  2  1  0
 23  5  1  0
 22 18  2  0
  1 25  1  0
  1 26  1  0
  1 27  1  0
  3 28  1  0
  4 29  1  0
  6 30  1  0
  7 31  1  0
 11 32  1  0
 12 33  1  0
 12 34  1  0
 13 35  1  0
 13 36  1  0
 15 37  1  0
 15 38  1  0
 15 39  1  0
 19 40  1  0
 20 41  1  0
 21 42  1  0
 24 43  1  0
M  END
>  <Energy>  (163) 
828.97227668161156

>  <compound_id>  (163) 
30259

>  <target_id>  (163) 
1

>  <reference_id>  (163) 
99

>  <inspiration_ids>  (163) 
[93, 99]

>  <energy_score>  (163) 
737.2656266385201

>  <distance_score>  (163) 
8.891086461383573

>  <path>  (163) 
/opt/xchem-fragalysis-2/maxwin/BulkDock/SCRATCH/511023/C30259-P99/C30259-P99.minimised.mol

>  <scratch_subdir>  (163) 
/opt/xchem-fragalysis-2/maxwin/BulkDock/SCRATCH/511023/C30259-P99

>  <fragmenstein_runtime>  (163) 
13.189354658126831

>  <fragmenstein_outcome>  (163) 
too moved

>  <fragmenstein_mode>  (163) 
expansion

>  <fragmenstein_error>  (163) 


$$$$
C30260-P93
     RDKit          3D

 43 45  0  0  0  0  0  0  0  0999 V2000
    6.3999   -0.9439   12.2787 C   0  0  0  0  0  0  0  0  0  0  0  0
    5.2743   -0.6571   11.7940 N   0  0  0  0  0  0  0  0  0  0  0  0
    6.9437   -1.0683   12.9909 C   0  0  0  0  0  0  0  0  0  0  0  0
    6.8028   -1.6894   14.8118 C   0  0  0  0  0  0  0  0  0  0  0  0
    6.9558   -0.8376   16.3894 N   0  0  0  0  0  0  0  0  0  0  0  0
    5.9911   -0.9752   17.8692 C   0  0  0  0  0  0  0  0  0  0  0  0
    4.9718   -1.6320   18.0374 O   0  0  0  0  0  0  0  0  0  0  0  0
    6.4709   -0.2899   19.3251 C   0  0  0  0  0  0  0  0  0  0  0  0
    6.9287    0.9709   19.7170 C   0  0  0  0  0  0  0  0  0  0  0  0
    6.9336    1.0680   21.0857 N   0  0  0  0  0  0  0  0  0  0  0  0
    6.9000    2.2904   21.8646 C   0  0  0  0  0  0  0  0  0  0  0  0
    6.7848   -0.1702   21.6321 C   0  0  0  0  0  0  0  0  0  0  0  0
    6.9979   -0.6351   22.9346 C   0  0  0  0  0  0  0  0  0  0  0  0
    6.5321   -1.9089   23.2463 C   0  0  0  0  0  0  0  0  0  0  0  0
    5.7814   -2.6263   22.3277 C   0  0  0  0  0  0  0  0  0  0  0  0
    5.5405   -2.1139   21.0487 C   0  0  0  0  0  0  0  0  0  0  0  0
    6.1742   -0.9182   20.6320 C   0  0  0  0  0  0  0  0  0  0  0  0
    4.2251    0.9492   11.8149 C   0  0  0  0  0  0  0  0  0  0  0  0
    4.3861    2.0020   12.3986 O   0  0  0  0  0  0  0  0  0  0  0  0
    3.1354    0.6550   11.0808 C   0  0  0  0  0  0  0  0  0  0  0  0
    2.1810   -0.6629   11.4947 C   0  0  0  0  0  0  0  0  0  0  0  0
    1.4817   -0.8244   10.2393 C   0  0  0  0  0  0  0  0  0  0  0  0
    1.8905    0.5929    9.4701 N   0  0  0  0  0  0  0  0  0  0  0  0
    2.8366    1.3600   10.0112 N   0  0  0  0  0  0  0  0  0  0  0  0
    5.7253   -0.1140   12.8262 H   0  0  0  0  0  0  0  0  0  0  0  0
    5.9561   -2.1960   12.3319 H   0  0  0  0  0  0  0  0  0  0  0  0
    6.9294   -0.7997   11.2163 H   0  0  0  0  0  0  0  0  0  0  0  0
    7.8683   -0.2793   13.0502 H   0  0  0  0  0  0  0  0  0  0  0  0
    7.5551   -2.1070   12.7653 H   0  0  0  0  0  0  0  0  0  0  0  0
    7.7342   -2.2679   14.8847 H   0  0  0  0  0  0  0  0  0  0  0  0
    5.9856   -2.4154   14.8267 H   0  0  0  0  0  0  0  0  0  0  0  0
    7.6967   -0.1559   16.5286 H   0  0  0  0  0  0  0  0  0  0  0  0
    7.1364    1.8630   19.1391 H   0  0  0  0  0  0  0  0  0  0  0  0
    7.8469    2.3881   22.4002 H   0  0  0  0  0  0  0  0  0  0  0  0
    6.7338    3.1418   21.2002 H   0  0  0  0  0  0  0  0  0  0  0  0
    6.0694    2.2280   22.5737 H   0  0  0  0  0  0  0  0  0  0  0  0
    7.4844   -0.0233   23.6879 H   0  0  0  0  0  0  0  0  0  0  0  0
    6.6882   -2.3122   24.2443 H   0  0  0  0  0  0  0  0  0  0  0  0
    5.3661   -3.5940   22.5990 H   0  0  0  0  0  0  0  0  0  0  0  0
    4.9797   -2.7138   20.3347 H   0  0  0  0  0  0  0  0  0  0  0  0
    1.6559   -0.6532   12.4670 H   0  0  0  0  0  0  0  0  0  0  0  0
    0.5785   -1.2969   10.0149 H   0  0  0  0  0  0  0  0  0  0  0  0
    1.8357    0.7810    8.4893 H   0  0  0  0  0  0  0  0  0  0  0  0
  1  2  1  0
  2  3  1  0
  3  4  1  0
  4  5  1  0
  5  6  1  0
  6  7  2  0
  6  8  1  0
  8  9  2  0
  9 10  1  0
 10 11  1  0
 10 12  1  0
 12 13  2  0
 13 14  1  0
 14 15  2  0
 15 16  1  0
 16 17  2  0
  2 18  1  0
 18 19  2  0
 18 20  1  0
 20 21  1  0
 21 22  2  0
 22 23  1  0
 23 24  1  0
 17  8  1  0
 24 20  2  0
 17 12  1  0
  1 25  1  0
  1 26  1  0
  1 27  1  0
  3 28  1  0
  3 29  1  0
  4 30  1  0
  4 31  1  0
  5 32  1  0
  9 33  1  0
 11 34  1  0
 11 35  1  0
 11 36  1  0
 13 37  1  0
 14 38  1  0
 15 39  1  0
 16 40  1  0
 21 41  1  0
 22 42  1  0
 23 43  1  0
M  END
>  <Energy>  (164) 
1233.1437867567802

>  <compound_id>  (164) 
30260

>  <target_id>  (164) 
1

>  <reference_id>  (164) 
93

>  <inspiration_ids>  (164) 
[93, 99]

>  <energy_score>  (164) 
1151.0420196806667

>  <distance_score>  (164) 
9.960920898059712

>  <path>  (164) 
/opt/xchem-fragalysis-2/maxwin/BulkDock/SCRATCH/511023/C30260-P93/C30260-P93.minimised.mol

>  <scratch_subdir>  (164) 
/opt/xchem-fragalysis-2/maxwin/BulkDock/SCRATCH/511023/C30260-P93

>  <fragmenstein_runtime>  (164) 
19.5228488445282

>  <fragmenstein_outcome>  (164) 
too moved

>  <fragmenstein_mode>  (164) 
expansion

>  <fragmenstein_error>  (164) 


$$$$
C30260-P99
     RDKit          3D

 43 45  0  0  0  0  0  0  0  0999 V2000
    0.7233    2.2892   14.1136 C   0  0  0  0  0  0  0  0  0  0  0  0
   -0.2168    1.6259   13.4881 N   0  0  0  0  0  0  0  0  0  0  0  0
    0.9837    3.0852   14.0945 C   0  0  0  0  0  0  0  0  0  0  0  0
    1.4158    3.6841   15.7504 C   0  0  0  0  0  0  0  0  0  0  0  0
    2.8427    3.9924   15.9092 N   0  0  0  0  0  0  0  0  0  0  0  0
    3.5907    4.4600   17.0558 C   0  0  0  0  0  0  0  0  0  0  0  0
    3.2217    4.7900   18.1448 O   0  0  0  0  0  0  0  0  0  0  0  0
    5.0788    4.4938   16.7982 C   0  0  0  0  0  0  0  0  0  0  0  0
    5.7169    4.8161   15.6069 C   0  0  0  0  0  0  0  0  0  0  0  0
    7.0745    4.6779   15.7630 N   0  0  0  0  0  0  0  0  0  0  0  0
    8.0591    5.0532   14.7742 C   0  0  0  0  0  0  0  0  0  0  0  0
    7.3744    4.2146   17.0199 C   0  0  0  0  0  0  0  0  0  0  0  0
    8.6007    3.8440   17.5973 C   0  0  0  0  0  0  0  0  0  0  0  0
    8.6057    3.4555   18.9376 C   0  0  0  0  0  0  0  0  0  0  0  0
    7.4365    3.4396   19.6803 C   0  0  0  0  0  0  0  0  0  0  0  0
    6.2220    3.8143   19.0917 C   0  0  0  0  0  0  0  0  0  0  0  0
    6.1652    4.1931   17.7276 C   0  0  0  0  0  0  0  0  0  0  0  0
   -0.0205   -0.0724   13.0548 C   0  0  0  0  0  0  0  0  0  0  0  0
    0.8765   -0.7859   13.1199 O   0  0  0  0  0  0  0  0  0  0  0  0
   -1.4968   -0.6140   12.3060 C   0  0  0  0  0  0  0  0  0  0  0  0
   -3.0615   -0.5023   12.6067 C   0  0  0  0  0  0  0  0  0  0  0  0
   -4.1859   -0.1612   11.5258 C   0  0  0  0  0  0  0  0  0  0  0  0
   -3.3057    0.1414   10.1971 N   0  0  0  0  0  0  0  0  0  0  0  0
   -1.7086   -0.1480   11.1797 N   0  0  0  0  0  0  0  0  0  0  0  0
   -0.0914    2.0909   15.0538 H   0  0  0  0  0  0  0  0  0  0  0  0
    1.5142    1.5771   13.4498 H   0  0  0  0  0  0  0  0  0  0  0  0
    1.2457    1.5126   14.9365 H   0  0  0  0  0  0  0  0  0  0  0  0
    1.8825    3.4026   13.3196 H   0  0  0  0  0  0  0  0  0  0  0  0
    0.2950    4.0315   13.7811 H   0  0  0  0  0  0  0  0  0  0  0  0
    1.1396    2.9612   16.5275 H   0  0  0  0  0  0  0  0  0  0  0  0
    0.8515    4.6087   15.9148 H   0  0  0  0  0  0  0  0  0  0  0  0
    3.4977    3.7205   15.1720 H   0  0  0  0  0  0  0  0  0  0  0  0
    5.2999    5.1430   14.6641 H   0  0  0  0  0  0  0  0  0  0  0  0
    7.5603    5.2960   13.8326 H   0  0  0  0  0  0  0  0  0  0  0  0
    8.5986    5.9294   15.1435 H   0  0  0  0  0  0  0  0  0  0  0  0
    8.7455    4.2168   14.6229 H   0  0  0  0  0  0  0  0  0  0  0  0
    9.5274    3.8763   17.0355 H   0  0  0  0  0  0  0  0  0  0  0  0
    9.5414    3.1984   19.4214 H   0  0  0  0  0  0  0  0  0  0  0  0
    7.4572    3.1456   20.7254 H   0  0  0  0  0  0  0  0  0  0  0  0
    5.3064    3.7855   19.6761 H   0  0  0  0  0  0  0  0  0  0  0  0
   -3.4051   -0.4494   13.5868 H   0  0  0  0  0  0  0  0  0  0  0  0
   -5.2650   -0.2573   11.5687 H   0  0  0  0  0  0  0  0  0  0  0  0
   -3.3710   -0.4170    9.3588 H   0  0  0  0  0  0  0  0  0  0  0  0
  1  2  1  0
  2  3  1  0
  3  4  1  0
  4  5  1  0
  5  6  1  0
  6  7  2  0
  6  8  1  0
  8  9  2  0
  9 10  1  0
 10 11  1  0
 10 12  1  0
 12 13  2  0
 13 14  1  0
 14 15  2  0
 15 16  1  0
 16 17  2  0
  2 18  1  0
 18 19  2  0
 18 20  1  0
 20 21  1  0
 21 22  2  0
 22 23  1  0
 23 24  1  0
 17  8  1  0
 24 20  2  0
 17 12  1  0
  1 25  1  0
  1 26  1  0
  1 27  1  0
  3 28  1  0
  3 29  1  0
  4 30  1  0
  4 31  1  0
  5 32  1  0
  9 33  1  0
 11 34  1  0
 11 35  1  0
 11 36  1  0
 13 37  1  0
 14 38  1  0
 15 39  1  0
 16 40  1  0
 21 41  1  0
 22 42  1  0
 23 43  1  0
M  END
>  <Energy>  (165) 
1078.4647201921509

>  <compound_id>  (165) 
30260

>  <target_id>  (165) 
1

>  <reference_id>  (165) 
99

>  <inspiration_ids>  (165) 
[93, 99]

>  <energy_score>  (165) 
996.362953116052

>  <distance_score>  (165) 
9.96005149202921

>  <path>  (165) 
/opt/xchem-fragalysis-2/maxwin/BulkDock/SCRATCH/511023/C30260-P99/C30260-P99.minimised.mol

>  <scratch_subdir>  (165) 
/opt/xchem-fragalysis-2/maxwin/BulkDock/SCRATCH/511023/C30260-P99

>  <fragmenstein_runtime>  (165) 
13.83870005607605

>  <fragmenstein_outcome>  (165) 
too moved

>  <fragmenstein_mode>  (165) 
expansion

>  <fragmenstein_error>  (165) 


$$$$
C30261-P93
     RDKit          3D

 40 42  0  0  0  0  0  0  0  0999 V2000
    4.2945    2.9166   10.2599 C   0  0  0  0  0  0  0  0  0  0  0  0
    2.8787    1.7002   10.6395 N   0  0  0  0  0  0  0  0  0  0  0  0
    3.7815    2.7702   10.7710 C   0  0  0  0  0  0  0  0  0  0  0  0
    4.1140    4.1683   12.0499 C   0  0  0  0  0  0  0  0  0  0  0  0
    5.5691    4.4571   12.2911 N   0  0  0  0  0  0  0  0  0  0  0  0
    6.2331    5.1912   13.3630 C   0  0  0  0  0  0  0  0  0  0  0  0
    5.7804    5.8155   14.2759 O   0  0  0  0  0  0  0  0  0  0  0  0
    7.7385    5.0090   13.3044 C   0  0  0  0  0  0  0  0  0  0  0  0
    8.5747    5.2740   12.2325 C   0  0  0  0  0  0  0  0  0  0  0  0
    9.8473    4.8375   12.5250 N   0  0  0  0  0  0  0  0  0  0  0  0
    9.8694    4.1866   13.7342 C   0  0  0  0  0  0  0  0  0  0  0  0
   10.9024    3.4532   14.3457 C   0  0  0  0  0  0  0  0  0  0  0  0
   10.6454    2.8814   15.5916 C   0  0  0  0  0  0  0  0  0  0  0  0
    9.4178    3.0803   16.2039 C   0  0  0  0  0  0  0  0  0  0  0  0
    9.1729    2.4852   17.3776 F   0  0  0  0  0  0  0  0  0  0  0  0
    8.4048    3.8405   15.6042 C   0  0  0  0  0  0  0  0  0  0  0  0
    8.6098    4.3877   14.3131 C   0  0  0  0  0  0  0  0  0  0  0  0
    1.9986    0.9812    9.3814 C   0  0  0  0  0  0  0  0  0  0  0  0
    2.0150    1.1588    8.2539 O   0  0  0  0  0  0  0  0  0  0  0  0
    0.5675   -0.3061    9.8267 C   0  0  0  0  0  0  0  0  0  0  0  0
   -1.4151   -0.1926    8.9693 C   0  0  0  0  0  0  0  0  0  0  0  0
   -2.0785   -1.3152    8.4993 C   0  0  0  0  0  0  0  0  0  0  0  0
   -1.5837   -0.9649    9.7075 N   0  0  0  0  0  0  0  0  0  0  0  0
    0.0474   -1.2359   10.4930 N   0  0  0  0  0  0  0  0  0  0  0  0
    5.4899    2.7807   10.3908 H   0  0  0  0  0  0  0  0  0  0  0  0
    4.5200    2.3245    9.1797 H   0  0  0  0  0  0  0  0  0  0  0  0
    4.0668    3.9161    9.4886 H   0  0  0  0  0  0  0  0  0  0  0  0
    3.9519    2.1691   11.8417 H   0  0  0  0  0  0  0  0  0  0  0  0
    2.6913    3.4042   10.8006 H   0  0  0  0  0  0  0  0  0  0  0  0
    3.6092    3.9169   12.9877 H   0  0  0  0  0  0  0  0  0  0  0  0
    3.6788    5.0858   11.6324 H   0  0  0  0  0  0  0  0  0  0  0  0
    6.2641    4.1168   11.6449 H   0  0  0  0  0  0  0  0  0  0  0  0
    8.3859    5.7675   11.2895 H   0  0  0  0  0  0  0  0  0  0  0  0
   10.6495    4.9438   11.9166 H   0  0  0  0  0  0  0  0  0  0  0  0
   11.8688    3.3252   13.8665 H   0  0  0  0  0  0  0  0  0  0  0  0
   11.4079    2.2947   16.0949 H   0  0  0  0  0  0  0  0  0  0  0  0
    7.4409    3.9420   16.0971 H   0  0  0  0  0  0  0  0  0  0  0  0
   -1.9020    0.7473    8.5484 H   0  0  0  0  0  0  0  0  0  0  0  0
   -3.0964   -1.3585    8.1383 H   0  0  0  0  0  0  0  0  0  0  0  0
   -2.1802   -0.5771   10.4374 H   0  0  0  0  0  0  0  0  0  0  0  0
  1  2  1  0
  2  3  1  0
  3  4  1  0
  4  5  1  0
  5  6  1  0
  6  7  2  0
  6  8  1  0
  8  9  2  0
  9 10  1  0
 10 11  1  0
 11 12  2  0
 12 13  1  0
 13 14  2  0
 14 15  1  0
 14 16  1  0
 16 17  2  0
  2 18  1  0
 18 19  2  0
 18 20  1  0
 20 21  1  0
 21 22  2  0
 22 23  1  0
 23 24  1  0
 17  8  1  0
 24 20  2  0
 17 11  1  0
  1 25  1  0
  1 26  1  0
  1 27  1  0
  3 28  1  0
  3 29  1  0
  4 30  1  0
  4 31  1  0
  5 32  1  0
  9 33  1  0
 10 34  1  0
 12 35  1  0
 13 36  1  0
 16 37  1  0
 21 38  1  0
 22 39  1  0
 23 40  1  0
M  END
>  <Energy>  (166) 
1315.3394971623409

>  <compound_id>  (166) 
30261

>  <target_id>  (166) 
1

>  <reference_id>  (166) 
93

>  <inspiration_ids>  (166) 
[93, 99]

>  <energy_score>  (166) 
1228.5393381881627

>  <distance_score>  (166) 
8.88003115879846

>  <path>  (166) 
/opt/xchem-fragalysis-2/maxwin/BulkDock/SCRATCH/511023/C30261-P93/C30261-P93.minimised.mol

>  <scratch_subdir>  (166) 
/opt/xchem-fragalysis-2/maxwin/BulkDock/SCRATCH/511023/C30261-P93

>  <fragmenstein_runtime>  (166) 
14.614524364471436

>  <fragmenstein_outcome>  (166) 
too moved

>  <fragmenstein_mode>  (166) 
expansion

>  <fragmenstein_error>  (166) 


$$$$
C30261-P99
     RDKit          3D

 40 42  0  0  0  0  0  0  0  0999 V2000
    2.9019    0.9348   10.3453 C   0  0  0  0  0  0  0  0  0  0  0  0
    1.8464    0.5703    9.4042 N   0  0  0  0  0  0  0  0  0  0  0  0
    3.6516    0.8695   10.4796 C   0  0  0  0  0  0  0  0  0  0  0  0
    5.0671   -0.3372   11.4662 C   0  0  0  0  0  0  0  0  0  0  0  0
    6.6128   -0.6095   12.3943 N   0  0  0  0  0  0  0  0  0  0  0  0
    6.8786   -1.3696   13.6745 C   0  0  0  0  0  0  0  0  0  0  0  0
    6.1476   -2.0468   14.3426 O   0  0  0  0  0  0  0  0  0  0  0  0
    8.2792   -1.1998   14.3520 C   0  0  0  0  0  0  0  0  0  0  0  0
    8.9662   -2.2837   14.8517 C   0  0  0  0  0  0  0  0  0  0  0  0
   10.3054   -2.0342   14.9677 N   0  0  0  0  0  0  0  0  0  0  0  0
   10.4981   -0.6939   14.8823 C   0  0  0  0  0  0  0  0  0  0  0  0
   11.7006    0.0162   14.9227 C   0  0  0  0  0  0  0  0  0  0  0  0
   11.6127    1.3983   14.8886 C   0  0  0  0  0  0  0  0  0  0  0  0
   10.3725    2.0052   14.9433 C   0  0  0  0  0  0  0  0  0  0  0  0
   10.3035    3.3413   15.0177 F   0  0  0  0  0  0  0  0  0  0  0  0
    9.1831    1.2701   14.8980 C   0  0  0  0  0  0  0  0  0  0  0  0
    9.2179   -0.1209   14.7167 C   0  0  0  0  0  0  0  0  0  0  0  0
    0.4217   -0.8378    9.5379 C   0  0  0  0  0  0  0  0  0  0  0  0
    0.5127   -1.5917   10.4598 O   0  0  0  0  0  0  0  0  0  0  0  0
   -1.3531   -1.1667    8.5330 C   0  0  0  0  0  0  0  0  0  0  0  0
   -2.7877   -0.5319    8.6893 C   0  0  0  0  0  0  0  0  0  0  0  0
   -3.7251   -0.9478    7.7835 C   0  0  0  0  0  0  0  0  0  0  0  0
   -2.9698   -1.5588    6.8860 N   0  0  0  0  0  0  0  0  0  0  0  0
   -1.6545   -1.4504    7.1240 N   0  0  0  0  0  0  0  0  0  0  0  0
    2.6568    2.1046    9.7877 H   0  0  0  0  0  0  0  0  0  0  0  0
    2.4252    1.7179   11.3733 H   0  0  0  0  0  0  0  0  0  0  0  0
    2.3865    0.2167   11.3517 H   0  0  0  0  0  0  0  0  0  0  0  0
    4.4210    1.1877    9.5119 H   0  0  0  0  0  0  0  0  0  0  0  0
    3.9795    2.0928   11.0002 H   0  0  0  0  0  0  0  0  0  0  0  0
    5.2659    0.2626   12.3885 H   0  0  0  0  0  0  0  0  0  0  0  0
    5.8383   -0.3128   10.5985 H   0  0  0  0  0  0  0  0  0  0  0  0
    7.4791   -0.2121   12.0567 H   0  0  0  0  0  0  0  0  0  0  0  0
    8.6564   -3.2958   14.9882 H   0  0  0  0  0  0  0  0  0  0  0  0
   11.0205   -2.7324   15.1359 H   0  0  0  0  0  0  0  0  0  0  0  0
   12.6612   -0.4867   14.9731 H   0  0  0  0  0  0  0  0  0  0  0  0
   12.5094    2.0079   14.8860 H   0  0  0  0  0  0  0  0  0  0  0  0
    8.2544    1.8000   15.0418 H   0  0  0  0  0  0  0  0  0  0  0  0
   -3.1221    0.1337    9.4491 H   0  0  0  0  0  0  0  0  0  0  0  0
   -4.7858   -0.7756    7.6847 H   0  0  0  0  0  0  0  0  0  0  0  0
   -3.2534   -1.9675    6.0026 H   0  0  0  0  0  0  0  0  0  0  0  0
  1  2  1  0
  2  3  1  0
  3  4  1  0
  4  5  1  0
  5  6  1  0
  6  7  2  0
  6  8  1  0
  8  9  2  0
  9 10  1  0
 10 11  1  0
 11 12  2  0
 12 13  1  0
 13 14  2  0
 14 15  1  0
 14 16  1  0
 16 17  2  0
  2 18  1  0
 18 19  2  0
 18 20  1  0
 20 21  1  0
 21 22  2  0
 22 23  1  0
 23 24  1  0
 17  8  1  0
 24 20  2  0
 17 11  1  0
  1 25  1  0
  1 26  1  0
  1 27  1  0
  3 28  1  0
  3 29  1  0
  4 30  1  0
  4 31  1  0
  5 32  1  0
  9 33  1  0
 10 34  1  0
 12 35  1  0
 13 36  1  0
 16 37  1  0
 21 38  1  0
 22 39  1  0
 23 40  1  0
M  END
>  <Energy>  (167) 
1444.3276289860071

>  <compound_id>  (167) 
30261

>  <target_id>  (167) 
1

>  <reference_id>  (167) 
99

>  <inspiration_ids>  (167) 
[93, 99]

>  <energy_score>  (167) 
1357.5274700118475

>  <distance_score>  (167) 
6.737188321924395

>  <path>  (167) 
/opt/xchem-fragalysis-2/maxwin/BulkDock/SCRATCH/511023/C30261-P99/C30261-P99.minimised.mol

>  <scratch_subdir>  (167) 
/opt/xchem-fragalysis-2/maxwin/BulkDock/SCRATCH/511023/C30261-P99

>  <fragmenstein_runtime>  (167) 
9.666301012039185

>  <fragmenstein_outcome>  (167) 
too moved

>  <fragmenstein_mode>  (167) 
expansion

>  <fragmenstein_error>  (167) 


$$$$
C30262-P93
     RDKit          3D

 46 48  0  0  0  0  0  0  0  0999 V2000
   12.8105    4.0717   17.5552 C   0  0  0  0  0  0  0  0  0  0  0  0
   12.0226    4.0810   16.2585 C   0  0  0  0  0  0  0  0  0  0  0  0
   10.8712    3.1916   16.2958 N   0  0  0  0  0  0  0  0  0  0  0  0
    9.5984    3.5949   16.6273 C   0  0  0  0  0  0  0  0  0  0  0  0
    8.7392    2.5127   16.5411 C   0  0  0  0  0  0  0  0  0  0  0  0
    7.2856    2.4905   16.8888 C   0  0  0  0  0  0  0  0  0  0  0  0
    6.8700    1.4775   17.3722 O   0  0  0  0  0  0  0  0  0  0  0  0
    6.6034    3.7130   16.5307 N   0  0  0  0  0  0  0  0  0  0  0  0
    5.2051    4.1351   16.7346 C   0  0  0  0  0  0  0  0  0  0  0  0
    4.6163    5.1436   15.6753 C   0  0  0  0  0  0  0  0  0  0  0  0
    3.2365    4.7053   15.0998 N   0  0  0  0  0  0  0  0  0  0  0  0
    3.2115    6.1384   14.6518 C   0  0  0  0  0  0  0  0  0  0  0  0
    2.0066    4.3728   15.7627 C   0  0  0  0  0  0  0  0  0  0  0  0
    1.7053    4.4358   16.9276 O   0  0  0  0  0  0  0  0  0  0  0  0
    0.9002    3.9317   14.8023 C   0  0  0  0  0  0  0  0  0  0  0  0
   -0.2986    3.2346   15.1783 C   0  0  0  0  0  0  0  0  0  0  0  0
   -1.0950    3.1877   14.0598 C   0  0  0  0  0  0  0  0  0  0  0  0
   -0.3885    3.8269   13.0876 N   0  0  0  0  0  0  0  0  0  0  0  0
    0.8373    4.2260   13.4823 N   0  0  0  0  0  0  0  0  0  0  0  0
    9.5658    1.4013   16.1008 C   0  0  0  0  0  0  0  0  0  0  0  0
    9.3145    0.0460   15.7926 C   0  0  0  0  0  0  0  0  0  0  0  0
   10.3570   -0.7983   15.3847 C   0  0  0  0  0  0  0  0  0  0  0  0
   11.6537   -0.3219   15.2786 C   0  0  0  0  0  0  0  0  0  0  0  0
   11.9385    1.0122   15.5650 C   0  0  0  0  0  0  0  0  0  0  0  0
   10.8825    1.8557   15.9631 C   0  0  0  0  0  0  0  0  0  0  0  0
   13.6964    4.7078   17.4648 H   0  0  0  0  0  0  0  0  0  0  0  0
   12.2046    4.4550   18.3816 H   0  0  0  0  0  0  0  0  0  0  0  0
   13.1393    3.0610   17.8182 H   0  0  0  0  0  0  0  0  0  0  0  0
   11.6560    5.0911   16.0428 H   0  0  0  0  0  0  0  0  0  0  0  0
   12.6541    3.7803   15.4160 H   0  0  0  0  0  0  0  0  0  0  0  0
    9.4191    4.6152   16.9412 H   0  0  0  0  0  0  0  0  0  0  0  0
    7.2557    4.3313   16.0680 H   0  0  0  0  0  0  0  0  0  0  0  0
    4.5808    3.2541   16.8493 H   0  0  0  0  0  0  0  0  0  0  0  0
    5.2000    4.6256   17.7159 H   0  0  0  0  0  0  0  0  0  0  0  0
    4.5990    6.0841   16.2515 H   0  0  0  0  0  0  0  0  0  0  0  0
    5.3393    5.1879   14.8465 H   0  0  0  0  0  0  0  0  0  0  0  0
    3.0034    6.8484   15.4676 H   0  0  0  0  0  0  0  0  0  0  0  0
    2.3255    6.2457   14.0122 H   0  0  0  0  0  0  0  0  0  0  0  0
    4.0313    6.4433   13.9840 H   0  0  0  0  0  0  0  0  0  0  0  0
   -0.5363    2.8695   16.1680 H   0  0  0  0  0  0  0  0  0  0  0  0
   -2.0846    2.7972   13.8842 H   0  0  0  0  0  0  0  0  0  0  0  0
   -0.6715    4.0191   12.1273 H   0  0  0  0  0  0  0  0  0  0  0  0
    8.3032   -0.3419   15.8559 H   0  0  0  0  0  0  0  0  0  0  0  0
   10.1444   -1.8306   15.1121 H   0  0  0  0  0  0  0  0  0  0  0  0
   12.4477   -0.9872   14.9468 H   0  0  0  0  0  0  0  0  0  0  0  0
   12.9549    1.3827   15.4716 H   0  0  0  0  0  0  0  0  0  0  0  0
  1  2  1  0
  2  3  1  0
  3  4  1  0
  4  5  2  0
  5  6  1  0
  6  7  2  0
  6  8  1  0
  8  9  1  0
  9 10  1  0
 10 11  1  0
 11 12  1  0
 11 13  1  0
 13 14  2  0
 13 15  1  0
 15 16  1  0
 16 17  2  0
 17 18  1  0
 18 19  1  0
  5 20  1  0
 20 21  2  0
 21 22  1  0
 22 23  2  0
 23 24  1  0
 24 25  2  0
 25  3  1  0
 19 15  2  0
 25 20  1  0
  1 26  1  0
  1 27  1  0
  1 28  1  0
  2 29  1  0
  2 30  1  0
  4 31  1  0
  8 32  1  0
  9 33  1  0
  9 34  1  0
 10 35  1  0
 10 36  1  0
 12 37  1  0
 12 38  1  0
 12 39  1  0
 16 40  1  0
 17 41  1  0
 18 42  1  0
 21 43  1  0
 22 44  1  0
 23 45  1  0
 24 46  1  0
M  END
>  <Energy>  (168) 
140.04250393965177

>  <compound_id>  (168) 
30262

>  <target_id>  (168) 
1

>  <reference_id>  (168) 
93

>  <inspiration_ids>  (168) 
[93, 99]

>  <energy_score>  (168) 
31.089921161011546

>  <distance_score>  (168) 
9.298209272262842

>  <path>  (168) 
/opt/xchem-fragalysis-2/maxwin/BulkDock/SCRATCH/511023/C30262-P93/C30262-P93.minimised.mol

>  <scratch_subdir>  (168) 
/opt/xchem-fragalysis-2/maxwin/BulkDock/SCRATCH/511023/C30262-P93

>  <fragmenstein_runtime>  (168) 
23.87916135787964

>  <fragmenstein_outcome>  (168) 
too moved

>  <fragmenstein_mode>  (168) 
expansion

>  <fragmenstein_error>  (168) 


$$$$
C30262-P99
     RDKit          3D

 46 48  0  0  0  0  0  0  0  0999 V2000
    8.0217    2.6743   18.5920 C   0  0  0  0  0  0  0  0  0  0  0  0
    8.0240    1.6843   17.4377 C   0  0  0  0  0  0  0  0  0  0  0  0
    8.4183    2.2604   16.1641 N   0  0  0  0  0  0  0  0  0  0  0  0
    7.7715    3.3297   15.5970 C   0  0  0  0  0  0  0  0  0  0  0  0
    8.3284    3.6086   14.3599 C   0  0  0  0  0  0  0  0  0  0  0  0
    7.8109    4.6080   13.3706 C   0  0  0  0  0  0  0  0  0  0  0  0
    8.6030    5.1534   12.6629 O   0  0  0  0  0  0  0  0  0  0  0  0
    6.3676    4.7070   13.4232 N   0  0  0  0  0  0  0  0  0  0  0  0
    5.4369    5.5737   12.6963 C   0  0  0  0  0  0  0  0  0  0  0  0
    5.2871    5.3049   11.1705 C   0  0  0  0  0  0  0  0  0  0  0  0
    3.8695    5.1880   10.5970 N   0  0  0  0  0  0  0  0  0  0  0  0
    4.1015    3.7437   10.8859 C   0  0  0  0  0  0  0  0  0  0  0  0
    3.3865    5.3504    9.2559 C   0  0  0  0  0  0  0  0  0  0  0  0
    3.9845    5.5312    8.2273 O   0  0  0  0  0  0  0  0  0  0  0  0
    1.8955    5.1658    9.1386 C   0  0  0  0  0  0  0  0  0  0  0  0
    1.1534    5.2765    7.9194 C   0  0  0  0  0  0  0  0  0  0  0  0
   -0.1555    5.0531    8.2494 C   0  0  0  0  0  0  0  0  0  0  0  0
   -0.1495    4.7667    9.5763 N   0  0  0  0  0  0  0  0  0  0  0  0
    1.0656    4.8187   10.1473 N   0  0  0  0  0  0  0  0  0  0  0  0
    9.4587    2.7035   14.2426 C   0  0  0  0  0  0  0  0  0  0  0  0
   10.4763    2.5116   13.2789 C   0  0  0  0  0  0  0  0  0  0  0  0
   11.3694    1.4364   13.3936 C   0  0  0  0  0  0  0  0  0  0  0  0
   11.2330    0.5129   14.4199 C   0  0  0  0  0  0  0  0  0  0  0  0
   10.2402    0.6724   15.3864 C   0  0  0  0  0  0  0  0  0  0  0  0
    9.4024    1.8001   15.3170 C   0  0  0  0  0  0  0  0  0  0  0  0
    7.2580    3.4467   18.4570 H   0  0  0  0  0  0  0  0  0  0  0  0
    8.9890    3.1754   18.6884 H   0  0  0  0  0  0  0  0  0  0  0  0
    7.8076    2.1559   19.5320 H   0  0  0  0  0  0  0  0  0  0  0  0
    7.0258    1.2547   17.2971 H   0  0  0  0  0  0  0  0  0  0  0  0
    8.7069    0.8672   17.6689 H   0  0  0  0  0  0  0  0  0  0  0  0
    6.9410    3.7964   16.1123 H   0  0  0  0  0  0  0  0  0  0  0  0
    6.0260    4.1617   14.2071 H   0  0  0  0  0  0  0  0  0  0  0  0
    5.8065    6.5953   12.8418 H   0  0  0  0  0  0  0  0  0  0  0  0
    4.4686    5.4957   13.2017 H   0  0  0  0  0  0  0  0  0  0  0  0
    5.5822    6.2667   10.7174 H   0  0  0  0  0  0  0  0  0  0  0  0
    6.0668    4.6586   10.7320 H   0  0  0  0  0  0  0  0  0  0  0  0
    3.1428    3.2376   10.7063 H   0  0  0  0  0  0  0  0  0  0  0  0
    4.7577    3.2765   10.1378 H   0  0  0  0  0  0  0  0  0  0  0  0
    4.3112    3.4871   11.9308 H   0  0  0  0  0  0  0  0  0  0  0  0
    1.5516    5.5135    6.9425 H   0  0  0  0  0  0  0  0  0  0  0  0
   -1.0679    5.0474    7.6725 H   0  0  0  0  0  0  0  0  0  0  0  0
   -0.9454    4.4607   10.1316 H   0  0  0  0  0  0  0  0  0  0  0  0
   10.5629    3.1986   12.4398 H   0  0  0  0  0  0  0  0  0  0  0  0
   12.1460    1.3029   12.6447 H   0  0  0  0  0  0  0  0  0  0  0  0
   11.8965   -0.3478   14.4605 H   0  0  0  0  0  0  0  0  0  0  0  0
   10.1297   -0.0712   16.1627 H   0  0  0  0  0  0  0  0  0  0  0  0
  1  2  1  0
  2  3  1  0
  3  4  1  0
  4  5  2  0
  5  6  1  0
  6  7  2  0
  6  8  1  0
  8  9  1  0
  9 10  1  0
 10 11  1  0
 11 12  1  0
 11 13  1  0
 13 14  2  0
 13 15  1  0
 15 16  1  0
 16 17  2  0
 17 18  1  0
 18 19  1  0
  5 20  1  0
 20 21  2  0
 21 22  1  0
 22 23  2  0
 23 24  1  0
 24 25  2  0
 25  3  1  0
 19 15  2  0
 25 20  1  0
  1 26  1  0
  1 27  1  0
  1 28  1  0
  2 29  1  0
  2 30  1  0
  4 31  1  0
  8 32  1  0
  9 33  1  0
  9 34  1  0
 10 35  1  0
 10 36  1  0
 12 37  1  0
 12 38  1  0
 12 39  1  0
 16 40  1  0
 17 41  1  0
 18 42  1  0
 21 43  1  0
 22 44  1  0
 23 45  1  0
 24 46  1  0
M  END
>  <Energy>  (169) 
137.53733891407634

>  <compound_id>  (169) 
30262

>  <target_id>  (169) 
1

>  <reference_id>  (169) 
99

>  <inspiration_ids>  (169) 
[93, 99]

>  <energy_score>  (169) 
28.584756135436578

>  <distance_score>  (169) 
9.47335529228239

>  <path>  (169) 
/opt/xchem-fragalysis-2/maxwin/BulkDock/SCRATCH/511023/C30262-P99/C30262-P99.minimised.mol

>  <scratch_subdir>  (169) 
/opt/xchem-fragalysis-2/maxwin/BulkDock/SCRATCH/511023/C30262-P99

>  <fragmenstein_runtime>  (169) 
18.584307432174683

>  <fragmenstein_outcome>  (169) 
too moved

>  <fragmenstein_mode>  (169) 
expansion

>  <fragmenstein_error>  (169) 


$$$$
C30263-P93
     RDKit          3D

 43 45  0  0  0  0  0  0  0  0999 V2000
    8.7718   -0.2375   15.4740 C   0  0  0  0  0  0  0  0  0  0  0  0
    9.8633    0.7339   15.6329 C   0  0  0  0  0  0  0  0  0  0  0  0
   11.1143    0.3415   15.2296 N   0  0  0  0  0  0  0  0  0  0  0  0
   12.0510    1.1968   15.7299 C   0  0  0  0  0  0  0  0  0  0  0  0
   13.4423    1.0647   15.7401 C   0  0  0  0  0  0  0  0  0  0  0  0
   14.1701    2.0586   16.3866 C   0  0  0  0  0  0  0  0  0  0  0  0
   13.5260    3.1405   16.9798 C   0  0  0  0  0  0  0  0  0  0  0  0
   12.1286    3.2659   16.9355 C   0  0  0  0  0  0  0  0  0  0  0  0
   11.3579    2.2711   16.3013 C   0  0  0  0  0  0  0  0  0  0  0  0
    9.9350    2.0242   16.1629 C   0  0  0  0  0  0  0  0  0  0  0  0
    8.7931    2.8418   16.7067 C   0  0  0  0  0  0  0  0  0  0  0  0
    8.5121    2.6988   17.8560 O   0  0  0  0  0  0  0  0  0  0  0  0
    8.1972    3.6597   15.6953 N   0  0  0  0  0  0  0  0  0  0  0  0
    7.1118    4.6565   15.7702 C   0  0  0  0  0  0  0  0  0  0  0  0
    5.7503    4.3989   16.8985 C   0  0  0  0  0  0  0  0  0  0  0  0
    3.8795    4.0784   16.3499 N   0  0  0  0  0  0  0  0  0  0  0  0
    5.0062    4.6694   16.6945 C   0  0  0  0  0  0  0  0  0  0  0  0
    2.8623    4.7114   15.2536 C   0  0  0  0  0  0  0  0  0  0  0  0
    2.9466    5.6254   14.5460 O   0  0  0  0  0  0  0  0  0  0  0  0
    1.6005    3.8549   15.1044 C   0  0  0  0  0  0  0  0  0  0  0  0
    0.6665    3.9771   14.0104 C   0  0  0  0  0  0  0  0  0  0  0  0
   -0.3589    3.1015   14.2652 C   0  0  0  0  0  0  0  0  0  0  0  0
   -0.0317    2.5004   15.4398 N   0  0  0  0  0  0  0  0  0  0  0  0
    1.1523    2.8992   15.9544 N   0  0  0  0  0  0  0  0  0  0  0  0
    9.0823   -1.2250   15.8230 H   0  0  0  0  0  0  0  0  0  0  0  0
    8.5397   -0.3504   14.4158 H   0  0  0  0  0  0  0  0  0  0  0  0
    7.8933    0.0521   16.0490 H   0  0  0  0  0  0  0  0  0  0  0  0
   11.3272   -0.5314   14.7608 H   0  0  0  0  0  0  0  0  0  0  0  0
   13.9409    0.2130   15.2887 H   0  0  0  0  0  0  0  0  0  0  0  0
   15.2543    1.9866   16.4368 H   0  0  0  0  0  0  0  0  0  0  0  0
   14.1095    3.8990   17.4975 H   0  0  0  0  0  0  0  0  0  0  0  0
   11.6470    4.0991   17.4420 H   0  0  0  0  0  0  0  0  0  0  0  0
    8.7498    3.5938   14.8509 H   0  0  0  0  0  0  0  0  0  0  0  0
    7.5743    5.5986   16.0880 H   0  0  0  0  0  0  0  0  0  0  0  0
    6.7359    4.7868   14.7501 H   0  0  0  0  0  0  0  0  0  0  0  0
    6.0372    3.2458   17.0627 H   0  0  0  0  0  0  0  0  0  0  0  0
    6.1120    4.6677   18.0667 H   0  0  0  0  0  0  0  0  0  0  0  0
    4.9626    5.1781   15.5498 H   0  0  0  0  0  0  0  0  0  0  0  0
    4.2899    4.9606   17.7028 H   0  0  0  0  0  0  0  0  0  0  0  0
    4.8689    5.9500   16.7767 H   0  0  0  0  0  0  0  0  0  0  0  0
    0.7595    4.6509   13.1692 H   0  0  0  0  0  0  0  0  0  0  0  0
   -1.2706    2.8687   13.7382 H   0  0  0  0  0  0  0  0  0  0  0  0
   -0.5795    1.8187   15.9589 H   0  0  0  0  0  0  0  0  0  0  0  0
  1  2  1  0
  2  3  1  0
  3  4  1  0
  4  5  2  0
  5  6  1  0
  6  7  2  0
  7  8  1  0
  8  9  2  0
  9 10  1  0
 10 11  1  0
 11 12  2  0
 11 13  1  0
 13 14  1  0
 14 15  1  0
 15 16  1  0
 16 17  1  0
 16 18  1  0
 18 19  2  0
 18 20  1  0
 20 21  1  0
 21 22  2  0
 22 23  1  0
 23 24  1  0
 10  2  2  0
 24 20  2  0
  9  4  1  0
  1 25  1  0
  1 26  1  0
  1 27  1  0
  3 28  1  0
  5 29  1  0
  6 30  1  0
  7 31  1  0
  8 32  1  0
 13 33  1  0
 14 34  1  0
 14 35  1  0
 15 36  1  0
 15 37  1  0
 17 38  1  0
 17 39  1  0
 17 40  1  0
 21 41  1  0
 22 42  1  0
 23 43  1  0
M  END
>  <Energy>  (170) 
829.91093232732317

>  <compound_id>  (170) 
30263

>  <target_id>  (170) 
1

>  <reference_id>  (170) 
93

>  <inspiration_ids>  (170) 
[93, 99]

>  <energy_score>  (170) 
728.4375106167987

>  <distance_score>  (170) 
9.073047142179172

>  <path>  (170) 
/opt/xchem-fragalysis-2/maxwin/BulkDock/SCRATCH/511023/C30263-P93/C30263-P93.minimised.mol

>  <scratch_subdir>  (170) 
/opt/xchem-fragalysis-2/maxwin/BulkDock/SCRATCH/511023/C30263-P93

>  <fragmenstein_runtime>  (170) 
19.74162459373474

>  <fragmenstein_outcome>  (170) 
too moved

>  <fragmenstein_mode>  (170) 
expansion

>  <fragmenstein_error>  (170) 


$$$$
C30263-P99
     RDKit          3D

 43 45  0  0  0  0  0  0  0  0999 V2000
    8.6261    0.6984   16.5585 C   0  0  0  0  0  0  0  0  0  0  0  0
    9.8481    0.2927   15.8218 C   0  0  0  0  0  0  0  0  0  0  0  0
   10.6315   -0.8130   16.0692 N   0  0  0  0  0  0  0  0  0  0  0  0
   11.7975   -0.7781   15.3458 C   0  0  0  0  0  0  0  0  0  0  0  0
   12.9185   -1.6127   15.4168 C   0  0  0  0  0  0  0  0  0  0  0  0
   13.9494   -1.3683   14.5114 C   0  0  0  0  0  0  0  0  0  0  0  0
   13.8434   -0.3477   13.5704 C   0  0  0  0  0  0  0  0  0  0  0  0
   12.6946    0.4559   13.5068 C   0  0  0  0  0  0  0  0  0  0  0  0
   11.6589    0.2685   14.4448 C   0  0  0  0  0  0  0  0  0  0  0  0
   10.3067    0.7652   14.6093 C   0  0  0  0  0  0  0  0  0  0  0  0
    9.4689    1.0784   13.4570 C   0  0  0  0  0  0  0  0  0  0  0  0
    9.8033    1.9129   12.6658 O   0  0  0  0  0  0  0  0  0  0  0  0
    8.3386    0.1635   13.4510 N   0  0  0  0  0  0  0  0  0  0  0  0
    7.3470   -0.0915   12.4536 C   0  0  0  0  0  0  0  0  0  0  0  0
    5.7120   -0.6628   11.7150 C   0  0  0  0  0  0  0  0  0  0  0  0
    3.8391   -0.1674   10.9882 N   0  0  0  0  0  0  0  0  0  0  0  0
    5.3853   -0.6185   12.0378 C   0  0  0  0  0  0  0  0  0  0  0  0
    2.0271   -1.1777   10.8296 C   0  0  0  0  0  0  0  0  0  0  0  0
    2.0978   -2.1489   11.3667 O   0  0  0  0  0  0  0  0  0  0  0  0
    0.1520   -1.0891    9.7936 C   0  0  0  0  0  0  0  0  0  0  0  0
   -1.4796   -0.7895    8.5478 C   0  0  0  0  0  0  0  0  0  0  0  0
   -2.8808   -0.6299    8.7260 C   0  0  0  0  0  0  0  0  0  0  0  0
   -2.4721   -1.9030    8.6997 N   0  0  0  0  0  0  0  0  0  0  0  0
   -0.9249   -1.8264    8.5956 N   0  0  0  0  0  0  0  0  0  0  0  0
    7.8091    0.0019   16.3612 H   0  0  0  0  0  0  0  0  0  0  0  0
    8.7989    0.7724   17.6327 H   0  0  0  0  0  0  0  0  0  0  0  0
    8.2998    1.6906   16.2267 H   0  0  0  0  0  0  0  0  0  0  0  0
   10.5268   -1.4780   16.8118 H   0  0  0  0  0  0  0  0  0  0  0  0
   12.9868   -2.4262   16.1329 H   0  0  0  0  0  0  0  0  0  0  0  0
   14.8393   -1.9935   14.5315 H   0  0  0  0  0  0  0  0  0  0  0  0
   14.6471   -0.1859   12.8563 H   0  0  0  0  0  0  0  0  0  0  0  0
   12.6012    1.2177   12.7376 H   0  0  0  0  0  0  0  0  0  0  0  0
    8.4161   -0.4619   14.2410 H   0  0  0  0  0  0  0  0  0  0  0  0
    7.7721   -0.0975   11.5102 H   0  0  0  0  0  0  0  0  0  0  0  0
    7.4303   -1.1461   12.7959 H   0  0  0  0  0  0  0  0  0  0  0  0
    6.4836   -1.7664   11.3742 H   0  0  0  0  0  0  0  0  0  0  0  0
    6.2547   -0.3314   10.5157 H   0  0  0  0  0  0  0  0  0  0  0  0
    5.1499   -2.1406   12.1426 H   0  0  0  0  0  0  0  0  0  0  0  0
    5.2202    0.4746   12.7242 H   0  0  0  0  0  0  0  0  0  0  0  0
    5.7449   -0.8265   13.4229 H   0  0  0  0  0  0  0  0  0  0  0  0
   -1.5437   -0.4336    7.4441 H   0  0  0  0  0  0  0  0  0  0  0  0
   -3.7368   -0.3034    8.1565 H   0  0  0  0  0  0  0  0  0  0  0  0
   -2.9376   -2.7190    8.3065 H   0  0  0  0  0  0  0  0  0  0  0  0
  1  2  1  0
  2  3  1  0
  3  4  1  0
  4  5  2  0
  5  6  1  0
  6  7  2  0
  7  8  1  0
  8  9  2  0
  9 10  1  0
 10 11  1  0
 11 12  2  0
 11 13  1  0
 13 14  1  0
 14 15  1  0
 15 16  1  0
 16 17  1  0
 16 18  1  0
 18 19  2  0
 18 20  1  0
 20 21  1  0
 21 22  2  0
 22 23  1  0
 23 24  1  0
 10  2  2  0
 24 20  2  0
  9  4  1  0
  1 25  1  0
  1 26  1  0
  1 27  1  0
  3 28  1  0
  5 29  1  0
  6 30  1  0
  7 31  1  0
  8 32  1  0
 13 33  1  0
 14 34  1  0
 14 35  1  0
 15 36  1  0
 15 37  1  0
 17 38  1  0
 17 39  1  0
 17 40  1  0
 21 41  1  0
 22 42  1  0
 23 43  1  0
M  END
>  <Energy>  (171) 
2150.2894107367779

>  <compound_id>  (171) 
30263

>  <target_id>  (171) 
1

>  <reference_id>  (171) 
99

>  <inspiration_ids>  (171) 
[93, 99]

>  <energy_score>  (171) 
2048.815989026245

>  <distance_score>  (171) 
5.968652651599476

>  <path>  (171) 
/opt/xchem-fragalysis-2/maxwin/BulkDock/SCRATCH/511023/C30263-P99/C30263-P99.minimised.mol

>  <scratch_subdir>  (171) 
/opt/xchem-fragalysis-2/maxwin/BulkDock/SCRATCH/511023/C30263-P99

>  <fragmenstein_runtime>  (171) 
20.177735328674316

>  <fragmenstein_outcome>  (171) 
too moved

>  <fragmenstein_mode>  (171) 
expansion

>  <fragmenstein_error>  (171) 


$$$$
C30264-P93
     RDKit          3D

 44 46  0  0  0  0  0  0  0  0999 V2000
    6.8951   -1.1275   11.4331 C   0  0  0  0  0  0  0  0  0  0  0  0
    5.5692   -1.1933   12.1574 C   0  0  0  0  0  0  0  0  0  0  0  0
    6.3882   -1.7426   13.7315 N   0  0  0  0  0  0  0  0  0  0  0  0
    7.8851   -1.8378   14.1223 C   0  0  0  0  0  0  0  0  0  0  0  0
    9.1269   -1.3317   15.0383 C   0  0  0  0  0  0  0  0  0  0  0  0
   10.2332   -2.2266   15.0943 C   0  0  0  0  0  0  0  0  0  0  0  0
   11.5279   -1.8533   15.4614 C   0  0  0  0  0  0  0  0  0  0  0  0
   11.7611   -0.5070   15.7345 C   0  0  0  0  0  0  0  0  0  0  0  0
   12.9375    0.2368   16.0227 C   0  0  0  0  0  0  0  0  0  0  0  0
   12.5627    1.5484   16.1814 C   0  0  0  0  0  0  0  0  0  0  0  0
   11.2014    1.6202   16.0207 N   0  0  0  0  0  0  0  0  0  0  0  0
   10.6762    0.3731   15.7457 C   0  0  0  0  0  0  0  0  0  0  0  0
    9.3416   -0.0176   15.4801 C   0  0  0  0  0  0  0  0  0  0  0  0
    3.6011   -1.8238   11.4677 C   0  0  0  0  0  0  0  0  0  0  0  0
    3.1464    0.1263   11.4153 C   0  0  0  0  0  0  0  0  0  0  0  0
    1.8116   -1.8294   10.3426 N   0  0  0  0  0  0  0  0  0  0  0  0
    0.1633   -1.0851   10.6292 C   0  0  0  0  0  0  0  0  0  0  0  0
   -0.0687   -0.5174   11.7010 O   0  0  0  0  0  0  0  0  0  0  0  0
   -1.4690   -0.8930    9.3603 C   0  0  0  0  0  0  0  0  0  0  0  0
   -2.6730    0.0005    9.0737 C   0  0  0  0  0  0  0  0  0  0  0  0
   -3.7399   -0.6328    8.4612 C   0  0  0  0  0  0  0  0  0  0  0  0
   -3.1687   -1.7815    8.1569 N   0  0  0  0  0  0  0  0  0  0  0  0
   -1.8465   -1.7177    8.2733 N   0  0  0  0  0  0  0  0  0  0  0  0
    7.3069   -2.1131   11.3852 H   0  0  0  0  0  0  0  0  0  0  0  0
    7.6025   -0.5244   11.9734 H   0  0  0  0  0  0  0  0  0  0  0  0
    6.8058   -0.6782   10.4599 H   0  0  0  0  0  0  0  0  0  0  0  0
    5.5396   -0.2351   12.5711 H   0  0  0  0  0  0  0  0  0  0  0  0
    6.0596   -2.7070   13.8023 H   0  0  0  0  0  0  0  0  0  0  0  0
    7.9972   -0.8461   13.7186 H   0  0  0  0  0  0  0  0  0  0  0  0
    7.5120   -2.1953   15.0831 H   0  0  0  0  0  0  0  0  0  0  0  0
   10.1164   -3.2525   14.7618 H   0  0  0  0  0  0  0  0  0  0  0  0
   12.3375   -2.5764   15.4441 H   0  0  0  0  0  0  0  0  0  0  0  0
   13.9470   -0.1474   16.0912 H   0  0  0  0  0  0  0  0  0  0  0  0
   13.1400    2.4357   16.4058 H   0  0  0  0  0  0  0  0  0  0  0  0
   10.6550    2.4671   16.0989 H   0  0  0  0  0  0  0  0  0  0  0  0
    8.5457    0.7154   15.4969 H   0  0  0  0  0  0  0  0  0  0  0  0
    3.4032   -2.8416   11.9077 H   0  0  0  0  0  0  0  0  0  0  0  0
    2.5476    0.4476   12.2875 H   0  0  0  0  0  0  0  0  0  0  0  0
    4.0323    0.7345   11.3591 H   0  0  0  0  0  0  0  0  0  0  0  0
    2.8054    0.5512   10.4597 H   0  0  0  0  0  0  0  0  0  0  0  0
    1.7827   -2.3059    9.4870 H   0  0  0  0  0  0  0  0  0  0  0  0
   -2.8624    1.0031    9.3137 H   0  0  0  0  0  0  0  0  0  0  0  0
   -4.7492   -0.3478    8.2046 H   0  0  0  0  0  0  0  0  0  0  0  0
   -3.5802   -2.6048    7.7317 H   0  0  0  0  0  0  0  0  0  0  0  0
  1  2  1  0
  2  3  1  0
  3  4  1  0
  4  5  1  0
  5  6  2  0
  6  7  1  0
  7  8  2  0
  8  9  1  0
  9 10  2  0
 10 11  1  0
 11 12  1  0
 12 13  2  0
  2 14  1  0
 14 15  1  0
 14 16  1  0
 16 17  1  0
 17 18  2  0
 17 19  1  0
 19 20  1  0
 20 21  2  0
 21 22  1  0
 22 23  1  0
 13  5  1  0
 23 19  2  0
 12  8  1  0
  1 24  1  0
  1 25  1  0
  1 26  1  0
  2 27  1  0
  3 28  1  0
  4 29  1  0
  4 30  1  0
  6 31  1  0
  7 32  1  0
  9 33  1  0
 10 34  1  0
 11 35  1  0
 13 36  1  0
 14 37  1  0
 15 38  1  0
 15 39  1  0
 15 40  1  0
 16 41  1  0
 20 42  1  0
 21 43  1  0
 22 44  1  0
M  END
>  <Energy>  (172) 
829.40351260040063

>  <compound_id>  (172) 
30264

>  <target_id>  (172) 
1

>  <reference_id>  (172) 
93

>  <inspiration_ids>  (172) 
[93, 99]

>  <energy_score>  (172) 
743.6453641960461

>  <distance_score>  (172) 
6.095684788280785

>  <path>  (172) 
/opt/xchem-fragalysis-2/maxwin/BulkDock/SCRATCH/511023/C30264-P93/C30264-P93.minimised.mol

>  <scratch_subdir>  (172) 
/opt/xchem-fragalysis-2/maxwin/BulkDock/SCRATCH/511023/C30264-P93

>  <fragmenstein_runtime>  (172) 
19.950103282928467

>  <fragmenstein_outcome>  (172) 
too moved

>  <fragmenstein_mode>  (172) 
expansion

>  <fragmenstein_error>  (172) 


$$$$
C30264-P99
     RDKit          3D

 44 46  0  0  0  0  0  0  0  0999 V2000
    7.5669   -1.1705   13.3172 C   0  0  0  0  0  0  0  0  0  0  0  0
    6.1910   -1.6860   13.6300 C   0  0  0  0  0  0  0  0  0  0  0  0
    6.9202   -1.4349   15.1166 N   0  0  0  0  0  0  0  0  0  0  0  0
    8.1014   -0.4288   15.6395 C   0  0  0  0  0  0  0  0  0  0  0  0
    9.6102   -0.7874   15.3637 C   0  0  0  0  0  0  0  0  0  0  0  0
   10.0607   -2.0859   15.0857 C   0  0  0  0  0  0  0  0  0  0  0  0
   11.4022   -2.4495   14.8977 C   0  0  0  0  0  0  0  0  0  0  0  0
   12.3654   -1.4458   14.9149 C   0  0  0  0  0  0  0  0  0  0  0  0
   13.7802   -1.4403   14.7847 C   0  0  0  0  0  0  0  0  0  0  0  0
   14.1936   -0.1342   14.8730 C   0  0  0  0  0  0  0  0  0  0  0  0
   13.0760    0.6436   15.0256 N   0  0  0  0  0  0  0  0  0  0  0  0
   11.9401   -0.1319   15.0960 C   0  0  0  0  0  0  0  0  0  0  0  0
   10.5877    0.2240   15.3349 C   0  0  0  0  0  0  0  0  0  0  0  0
    4.9594   -2.4207   12.1162 C   0  0  0  0  0  0  0  0  0  0  0  0
    6.2562   -1.1229   11.5845 C   0  0  0  0  0  0  0  0  0  0  0  0
    3.3324   -2.2847   10.9274 N   0  0  0  0  0  0  0  0  0  0  0  0
    1.6395   -1.4583   11.1581 C   0  0  0  0  0  0  0  0  0  0  0  0
    1.2787   -0.8735   12.1942 O   0  0  0  0  0  0  0  0  0  0  0  0
    0.2389   -1.2484    9.7413 C   0  0  0  0  0  0  0  0  0  0  0  0
   -1.6887   -1.2822    9.0862 C   0  0  0  0  0  0  0  0  0  0  0  0
   -2.2477   -0.5894    8.0632 C   0  0  0  0  0  0  0  0  0  0  0  0
   -1.4427   -1.5982    7.7034 N   0  0  0  0  0  0  0  0  0  0  0  0
    0.0901   -2.1273    8.7505 N   0  0  0  0  0  0  0  0  0  0  0  0
    8.1708   -2.0540   13.4173 H   0  0  0  0  0  0  0  0  0  0  0  0
    8.0785   -0.3337   13.7605 H   0  0  0  0  0  0  0  0  0  0  0  0
    7.7031   -0.4410   12.5060 H   0  0  0  0  0  0  0  0  0  0  0  0
    6.0803   -2.6557   14.0733 H   0  0  0  0  0  0  0  0  0  0  0  0
    7.3953   -2.3296   15.2752 H   0  0  0  0  0  0  0  0  0  0  0  0
    7.9912   -0.2830   16.7036 H   0  0  0  0  0  0  0  0  0  0  0  0
    7.9201    0.6074   15.3295 H   0  0  0  0  0  0  0  0  0  0  0  0
    9.3512   -2.8990   14.9989 H   0  0  0  0  0  0  0  0  0  0  0  0
   11.6725   -3.4893   14.7389 H   0  0  0  0  0  0  0  0  0  0  0  0
   14.4190   -2.3034   14.6498 H   0  0  0  0  0  0  0  0  0  0  0  0
   15.1792    0.3091   14.8373 H   0  0  0  0  0  0  0  0  0  0  0  0
   13.0863    1.6449   15.1491 H   0  0  0  0  0  0  0  0  0  0  0  0
   10.3148    1.2630   15.4999 H   0  0  0  0  0  0  0  0  0  0  0  0
    5.2398   -3.3925   11.7692 H   0  0  0  0  0  0  0  0  0  0  0  0
    6.3308   -0.5368   10.6526 H   0  0  0  0  0  0  0  0  0  0  0  0
    5.9879   -0.3128   12.2349 H   0  0  0  0  0  0  0  0  0  0  0  0
    7.1476   -1.6970   11.3811 H   0  0  0  0  0  0  0  0  0  0  0  0
    3.3529   -2.7594   10.0384 H   0  0  0  0  0  0  0  0  0  0  0  0
   -2.4247   -2.0743    9.2925 H   0  0  0  0  0  0  0  0  0  0  0  0
   -3.2172   -0.4802    7.6020 H   0  0  0  0  0  0  0  0  0  0  0  0
   -1.5077   -2.1244    6.8331 H   0  0  0  0  0  0  0  0  0  0  0  0
  1  2  1  0
  2  3  1  0
  3  4  1  0
  4  5  1  0
  5  6  2  0
  6  7  1  0
  7  8  2  0
  8  9  1  0
  9 10  2  0
 10 11  1  0
 11 12  1  0
 12 13  2  0
  2 14  1  0
 14 15  1  0
 14 16  1  0
 16 17  1  0
 17 18  2  0
 17 19  1  0
 19 20  1  0
 20 21  2  0
 21 22  1  0
 22 23  1  0
 13  5  1  0
 23 19  2  0
 12  8  1  0
  1 24  1  0
  1 25  1  0
  1 26  1  0
  2 27  1  0
  3 28  1  0
  4 29  1  0
  4 30  1  0
  6 31  1  0
  7 32  1  0
  9 33  1  0
 10 34  1  0
 11 35  1  0
 13 36  1  0
 14 37  1  0
 15 38  1  0
 15 39  1  0
 15 40  1  0
 16 41  1  0
 20 42  1  0
 21 43  1  0
 22 44  1  0
M  END
>  <Energy>  (173) 
1116.2665868205647

>  <compound_id>  (173) 
30264

>  <target_id>  (173) 
1

>  <reference_id>  (173) 
99

>  <inspiration_ids>  (173) 
[93, 99]

>  <energy_score>  (173) 
1030.5084384162205

>  <distance_score>  (173) 
6.0337189246647585

>  <path>  (173) 
/opt/xchem-fragalysis-2/maxwin/BulkDock/SCRATCH/511023/C30264-P99/C30264-P99.minimised.mol

>  <scratch_subdir>  (173) 
/opt/xchem-fragalysis-2/maxwin/BulkDock/SCRATCH/511023/C30264-P99

>  <fragmenstein_runtime>  (173) 
13.094011068344116

>  <fragmenstein_outcome>  (173) 
too moved

>  <fragmenstein_mode>  (173) 
expansion

>  <fragmenstein_error>  (173) 


$$$$
C30265-P93
     RDKit          2D

  0  0  0  0  0  0  0  0  0  0999 V2000
M  END
>  <compound_id>  (174) 
30265

>  <target_id>  (174) 
1

>  <reference_id>  (174) 
93

>  <inspiration_ids>  (174) 
[93, 99]

>  <energy_score>  (174) 
nan

>  <distance_score>  (174) 
nan

>  <path>  (174) 
/opt/xchem-fragalysis-2/maxwin/BulkDock/SCRATCH/511023/C30265-P93/C30265-P93.minimised.mol

>  <scratch_subdir>  (174) 
/opt/xchem-fragalysis-2/maxwin/BulkDock/SCRATCH/511023/C30265-P93

>  <fragmenstein_runtime>  (174) 
0.7118732929229736

>  <fragmenstein_outcome>  (174) 
too distant

>  <fragmenstein_mode>  (174) 
expansion

>  <fragmenstein_error>  (174) 
DistanceError: hit1

$$$$
C46199-P93
     RDKit          2D

  0  0  0  0  0  0  0  0  0  0999 V2000
M  END
>  <compound_id>  (175) 
46199

>  <target_id>  (175) 
1

>  <reference_id>  (175) 
93

>  <inspiration_ids>  (175) 
[93, 99]

>  <energy_score>  (175) 
nan

>  <distance_score>  (175) 
nan

>  <path>  (175) 
/opt/xchem-fragalysis-2/maxwin/BulkDock/SCRATCH/511023/C46199-P93/C46199-P93.minimised.mol

>  <scratch_subdir>  (175) 
/opt/xchem-fragalysis-2/maxwin/BulkDock/SCRATCH/511023/C46199-P93

>  <fragmenstein_runtime>  (175) 
0.7349176406860352

>  <fragmenstein_outcome>  (175) 
too distant

>  <fragmenstein_mode>  (175) 
expansion

>  <fragmenstein_error>  (175) 
DistanceError: hit0

$$$$
C30274-P93
     RDKit          3D

 35 37  0  0  0  0  0  0  0  0999 V2000
    1.5164   -6.4932   11.9586 C   0  0  0  0  0  0  0  0  0  0  0  0
    0.8790   -5.5270   13.5003 N   0  0  0  0  0  0  0  0  0  0  0  0
   -1.0409   -5.6200   12.4328 C   0  0  0  0  0  0  0  0  0  0  0  0
   -1.9355   -5.7268   10.4169 C   0  0  0  0  0  0  0  0  0  0  0  0
   -3.3387   -4.7302    9.6796 C   0  0  0  0  0  0  0  0  0  0  0  0
   -3.5501   -4.4327    8.2478 C   0  0  0  0  0  0  0  0  0  0  0  0
   -3.3089   -5.7714    8.2418 N   0  0  0  0  0  0  0  0  0  0  0  0
   -3.4920   -5.9738    9.7280 N   0  0  0  0  0  0  0  0  0  0  0  0
    2.0189   -4.1015   13.8332 C   0  0  0  0  0  0  0  0  0  0  0  0
    1.8631   -3.0710   13.4066 O   0  0  0  0  0  0  0  0  0  0  0  0
    3.5175   -4.3696   14.7393 N   0  0  0  0  0  0  0  0  0  0  0  0
    5.0718   -3.2202   15.0497 C   0  0  0  0  0  0  0  0  0  0  0  0
    6.4190   -3.3288   14.8532 C   0  0  0  0  0  0  0  0  0  0  0  0
    8.0913   -2.8945   14.8277 C   0  0  0  0  0  0  0  0  0  0  0  0
    8.3845   -1.6580   15.1854 C   0  0  0  0  0  0  0  0  0  0  0  0
    9.4315   -0.8578   15.4473 N   0  0  0  0  0  0  0  0  0  0  0  0
    8.9379    0.2050   16.1642 C   0  0  0  0  0  0  0  0  0  0  0  0
    7.5659    0.0137   16.3152 C   0  0  0  0  0  0  0  0  0  0  0  0
    7.1871   -1.1798   15.5645 C   0  0  0  0  0  0  0  0  0  0  0  0
    5.8529   -2.0091   14.7974 C   0  0  0  0  0  0  0  0  0  0  0  0
    2.3215   -5.7050   11.7871 H   0  0  0  0  0  0  0  0  0  0  0  0
    2.3920   -7.1628   11.7659 H   0  0  0  0  0  0  0  0  0  0  0  0
    0.7525   -7.1134   11.4928 H   0  0  0  0  0  0  0  0  0  0  0  0
   -1.1494   -6.6382   12.7899 H   0  0  0  0  0  0  0  0  0  0  0  0
   -1.6159   -4.8614   12.9814 H   0  0  0  0  0  0  0  0  0  0  0  0
   -3.8397   -4.3829   10.5579 H   0  0  0  0  0  0  0  0  0  0  0  0
   -4.1154   -3.8375    7.5404 H   0  0  0  0  0  0  0  0  0  0  0  0
   -2.5110   -6.2112    7.7951 H   0  0  0  0  0  0  0  0  0  0  0  0
    3.4859   -5.3029   15.1340 H   0  0  0  0  0  0  0  0  0  0  0  0
    6.3807   -3.3970   13.7531 H   0  0  0  0  0  0  0  0  0  0  0  0
    8.8475   -3.6560   14.8392 H   0  0  0  0  0  0  0  0  0  0  0  0
   10.3903   -1.0174   15.1544 H   0  0  0  0  0  0  0  0  0  0  0  0
    9.5853    1.0110   16.4861 H   0  0  0  0  0  0  0  0  0  0  0  0
    6.9033    0.7155   16.8077 H   0  0  0  0  0  0  0  0  0  0  0  0
    6.1478   -1.6469   13.7466 H   0  0  0  0  0  0  0  0  0  0  0  0
  1  2  1  0
  2  3  1  0
  3  4  1  0
  4  5  1  0
  5  6  2  0
  6  7  1  0
  7  8  1  0
  2  9  1  0
  9 10  2  0
  9 11  1  0
 11 12  1  0
 12 13  2  0
 13 14  1  0
 14 15  2  0
 15 16  1  0
 16 17  1  0
 17 18  2  0
 18 19  1  0
 19 20  2  0
  8  4  2  0
 20 12  1  0
 19 15  1  0
  1 21  1  0
  1 22  1  0
  1 23  1  0
  3 24  1  0
  3 25  1  0
  5 26  1  0
  6 27  1  0
  7 28  1  0
 11 29  1  0
 13 30  1  0
 14 31  1  0
 16 32  1  0
 17 33  1  0
 18 34  1  0
 20 35  1  0
M  END
>  <Energy>  (176) 
1363.7080327308365

>  <compound_id>  (176) 
30274

>  <target_id>  (176) 
1

>  <reference_id>  (176) 
93

>  <inspiration_ids>  (176) 
[93, 99]

>  <energy_score>  (176) 
1347.5241396559527

>  <distance_score>  (176) 
6.563948332065609

>  <path>  (176) 
/opt/xchem-fragalysis-2/maxwin/BulkDock/SCRATCH/511023/C30274-P93/C30274-P93.minimised.mol

>  <scratch_subdir>  (176) 
/opt/xchem-fragalysis-2/maxwin/BulkDock/SCRATCH/511023/C30274-P93

>  <fragmenstein_runtime>  (176) 
13.20553970336914

>  <fragmenstein_outcome>  (176) 
too moved

>  <fragmenstein_mode>  (176) 
expansion

>  <fragmenstein_error>  (176) 


$$$$
C30274-P99
     RDKit          3D

 35 37  0  0  0  0  0  0  0  0999 V2000
    3.9386   -3.6531   11.2941 C   0  0  0  0  0  0  0  0  0  0  0  0
    3.8920   -2.4031   12.0175 N   0  0  0  0  0  0  0  0  0  0  0  0
    2.3864   -1.9383   10.6387 C   0  0  0  0  0  0  0  0  0  0  0  0
    0.4445   -1.3713    9.8588 C   0  0  0  0  0  0  0  0  0  0  0  0
   -1.3077   -1.0808    8.7942 C   0  0  0  0  0  0  0  0  0  0  0  0
   -1.9268   -1.1567    7.4306 C   0  0  0  0  0  0  0  0  0  0  0  0
   -1.7990   -2.0058    8.5042 N   0  0  0  0  0  0  0  0  0  0  0  0
    0.0819   -2.2024    8.7930 N   0  0  0  0  0  0  0  0  0  0  0  0
    5.7216   -1.6735   12.2070 C   0  0  0  0  0  0  0  0  0  0  0  0
    6.3229   -0.9249   11.5046 O   0  0  0  0  0  0  0  0  0  0  0  0
    6.3615   -2.1924   13.7784 N   0  0  0  0  0  0  0  0  0  0  0  0
    7.6418   -1.7537   14.5648 C   0  0  0  0  0  0  0  0  0  0  0  0
    8.8023   -2.4784   14.7817 C   0  0  0  0  0  0  0  0  0  0  0  0
   10.1340   -1.9860   14.9661 C   0  0  0  0  0  0  0  0  0  0  0  0
   10.2414   -0.6298   15.1090 C   0  0  0  0  0  0  0  0  0  0  0  0
   11.3212    0.2075   15.0987 N   0  0  0  0  0  0  0  0  0  0  0  0
   10.8949    1.4812   15.3620 C   0  0  0  0  0  0  0  0  0  0  0  0
    9.5429    1.4324   15.6320 C   0  0  0  0  0  0  0  0  0  0  0  0
    9.0993    0.1176   15.3354 C   0  0  0  0  0  0  0  0  0  0  0  0
    7.8288   -0.5335   15.2224 C   0  0  0  0  0  0  0  0  0  0  0  0
    3.7037   -3.8587   10.2601 H   0  0  0  0  0  0  0  0  0  0  0  0
    3.4023   -4.3888   11.9277 H   0  0  0  0  0  0  0  0  0  0  0  0
    4.8993   -4.0190   11.5150 H   0  0  0  0  0  0  0  0  0  0  0  0
    2.3170   -0.9080   11.1502 H   0  0  0  0  0  0  0  0  0  0  0  0
    1.7214   -2.0119   11.4288 H   0  0  0  0  0  0  0  0  0  0  0  0
   -2.3432   -0.4119    9.1552 H   0  0  0  0  0  0  0  0  0  0  0  0
   -1.5991   -1.4611    6.4433 H   0  0  0  0  0  0  0  0  0  0  0  0
   -2.4677   -2.7844    8.6017 H   0  0  0  0  0  0  0  0  0  0  0  0
    5.6717   -2.7436   14.2384 H   0  0  0  0  0  0  0  0  0  0  0  0
    8.8098   -3.5481   14.8527 H   0  0  0  0  0  0  0  0  0  0  0  0
   10.9859   -2.6573   14.9481 H   0  0  0  0  0  0  0  0  0  0  0  0
   12.2693   -0.0698   14.8808 H   0  0  0  0  0  0  0  0  0  0  0  0
   11.5847    2.3131   15.3478 H   0  0  0  0  0  0  0  0  0  0  0  0
    8.9255    2.2868   15.8791 H   0  0  0  0  0  0  0  0  0  0  0  0
    7.0167    0.0084   15.6807 H   0  0  0  0  0  0  0  0  0  0  0  0
  1  2  1  0
  2  3  1  0
  3  4  1  0
  4  5  1  0
  5  6  2  0
  6  7  1  0
  7  8  1  0
  2  9  1  0
  9 10  2  0
  9 11  1  0
 11 12  1  0
 12 13  2  0
 13 14  1  0
 14 15  2  0
 15 16  1  0
 16 17  1  0
 17 18  2  0
 18 19  1  0
 19 20  2  0
  8  4  2  0
 20 12  1  0
 19 15  1  0
  1 21  1  0
  1 22  1  0
  1 23  1  0
  3 24  1  0
  3 25  1  0
  5 26  1  0
  6 27  1  0
  7 28  1  0
 11 29  1  0
 13 30  1  0
 14 31  1  0
 16 32  1  0
 17 33  1  0
 18 34  1  0
 20 35  1  0
M  END
>  <Energy>  (177) 
1077.9153435171504

>  <compound_id>  (177) 
30274

>  <target_id>  (177) 
1

>  <reference_id>  (177) 
99

>  <inspiration_ids>  (177) 
[93, 99]

>  <energy_score>  (177) 
1061.731450442277

>  <distance_score>  (177) 
6.395559544134186

>  <path>  (177) 
/opt/xchem-fragalysis-2/maxwin/BulkDock/SCRATCH/511023/C30274-P99/C30274-P99.minimised.mol

>  <scratch_subdir>  (177) 
/opt/xchem-fragalysis-2/maxwin/BulkDock/SCRATCH/511023/C30274-P99

>  <fragmenstein_runtime>  (177) 
12.18967604637146

>  <fragmenstein_outcome>  (177) 
too moved

>  <fragmenstein_mode>  (177) 
expansion

>  <fragmenstein_error>  (177) 


$$$$
C43155-P13
     RDKit          3D

 31 31  0  0  0  0  0  0  0  0999 V2000
   -2.3803    4.6875   24.4429 C   0  0  0  0  0  0  0  0  0  0  0  0
   -2.3475    4.1420   25.8108 N   0  0  0  0  0  0  0  0  0  0  0  0
   -2.5809    2.4804   25.8925 S   0  0  0  0  0  0  0  0  0  0  0  0
   -2.0020    1.9487   24.6813 O   0  0  0  0  0  0  0  0  0  0  0  0
   -3.9589    2.2365   26.2353 O   0  0  0  0  0  0  0  0  0  0  0  0
   -1.5248    2.0731   27.2750 C   0  0  0  0  0  0  0  0  0  0  0  0
   -1.8271    0.6852   27.8110 C   0  0  0  0  0  0  0  0  0  0  0  0
   -0.6012   -0.0453   28.3375 C   0  0  0  0  0  0  0  0  0  0  0  0
    0.0173    0.6178   29.5716 C   0  0  0  0  0  0  0  0  0  0  0  0
    1.2049   -0.2025   30.0676 C   0  0  0  0  0  0  0  0  0  0  0  0
    0.8175   -1.5822   30.3691 N   0  0  0  0  0  0  0  0  0  0  0  0
    0.2435   -2.2424   29.1930 C   0  0  0  0  0  0  0  0  0  0  0  0
   -0.9724   -1.4914   28.6702 C   0  0  0  0  0  0  0  0  0  0  0  0
   -1.5294    4.3332   23.8555 H   0  0  0  0  0  0  0  0  0  0  0  0
   -3.3223    4.4363   23.9465 H   0  0  0  0  0  0  0  0  0  0  0  0
   -2.3164    5.7784   24.5011 H   0  0  0  0  0  0  0  0  0  0  0  0
   -3.0322    4.6310   26.4015 H   0  0  0  0  0  0  0  0  0  0  0  0
   -1.6983    2.8225   28.0531 H   0  0  0  0  0  0  0  0  0  0  0  0
   -0.4954    2.1648   26.9140 H   0  0  0  0  0  0  0  0  0  0  0  0
   -2.2976    0.0714   27.0338 H   0  0  0  0  0  0  0  0  0  0  0  0
   -2.5433    0.7866   28.6273 H   0  0  0  0  0  0  0  0  0  0  0  0
    0.1545   -0.0646   27.5401 H   0  0  0  0  0  0  0  0  0  0  0  0
   -0.7289    0.6994   30.3714 H   0  0  0  0  0  0  0  0  0  0  0  0
    0.3528    1.6340   29.3365 H   0  0  0  0  0  0  0  0  0  0  0  0
    1.6021    0.2576   30.9790 H   0  0  0  0  0  0  0  0  0  0  0  0
    2.0128   -0.1914   29.3256 H   0  0  0  0  0  0  0  0  0  0  0  0
    1.6420   -2.1001   30.6719 H   0  0  0  0  0  0  0  0  0  0  0  0
    1.0028   -2.3372   28.4071 H   0  0  0  0  0  0  0  0  0  0  0  0
   -0.0552   -3.2591   29.4715 H   0  0  0  0  0  0  0  0  0  0  0  0
   -1.7727   -1.5151   29.4215 H   0  0  0  0  0  0  0  0  0  0  0  0
   -1.3588   -1.9987   27.7817 H   0  0  0  0  0  0  0  0  0  0  0  0
  1  2  1  0
  2  3  1  0
  3  4  2  0
  3  5  2  0
  3  6  1  0
  6  7  1  0
  7  8  1  0
  8  9  1  0
  9 10  1  0
 10 11  1  0
 11 12  1  0
 12 13  1  0
 13  8  1  0
  1 14  1  0
  1 15  1  0
  1 16  1  0
  2 17  1  0
  6 18  1  0
  6 19  1  0
  7 20  1  0
  7 21  1  0
  8 22  1  0
  9 23  1  0
  9 24  1  0
 10 25  1  0
 10 26  1  0
 11 27  1  0
 12 28  1  0
 12 29  1  0
 13 30  1  0
 13 31  1  0
M  END
>  <Energy>  (178) 
-64.955324761208544

>  <compound_id>  (178) 
43155

>  <target_id>  (178) 
1

>  <reference_id>  (178) 
13

>  <inspiration_ids>  (178) 
[13, 70]

>  <energy_score>  (178) 
-57.273519379996614

>  <distance_score>  (178) 
1.9205951103810566

>  <path>  (178) 
/opt/xchem-fragalysis-2/maxwin/BulkDock/SCRATCH/511023/C43155-P13/C43155-P13.minimised.mol

>  <scratch_subdir>  (178) 
/opt/xchem-fragalysis-2/maxwin/BulkDock/SCRATCH/511023/C43155-P13

>  <fragmenstein_runtime>  (178) 
2.5171701908111572

>  <fragmenstein_outcome>  (178) 
too moved

>  <fragmenstein_mode>  (178) 
expansion

>  <fragmenstein_error>  (178) 


$$$$
C43155-P70
     RDKit          3D

 31 31  0  0  0  0  0  0  0  0999 V2000
   -2.4382    4.7057   24.5572 C   0  0  0  0  0  0  0  0  0  0  0  0
   -2.2945    4.1927   25.9322 N   0  0  0  0  0  0  0  0  0  0  0  0
   -2.4029    2.5299   26.0538 S   0  0  0  0  0  0  0  0  0  0  0  0
   -1.6863    1.9991   24.9126 O   0  0  0  0  0  0  0  0  0  0  0  0
   -3.7837    2.1870   26.2832 O   0  0  0  0  0  0  0  0  0  0  0  0
   -1.4638    2.2003   27.5327 C   0  0  0  0  0  0  0  0  0  0  0  0
   -1.7609    0.8040   28.0637 C   0  0  0  0  0  0  0  0  0  0  0  0
   -0.5168    0.0162   28.4375 C   0  0  0  0  0  0  0  0  0  0  0  0
    0.2025    0.5959   29.6592 C   0  0  0  0  0  0  0  0  0  0  0  0
    1.3982   -0.2782   30.0271 C   0  0  0  0  0  0  0  0  0  0  0  0
    0.9962   -1.6645   30.2721 N   0  0  0  0  0  0  0  0  0  0  0  0
    0.3427   -2.2434   29.0934 C   0  0  0  0  0  0  0  0  0  0  0  0
   -0.8930   -1.4431   28.7079 C   0  0  0  0  0  0  0  0  0  0  0  0
   -2.4308    5.7994   24.5904 H   0  0  0  0  0  0  0  0  0  0  0  0
   -1.6063    4.3835   23.9259 H   0  0  0  0  0  0  0  0  0  0  0  0
   -3.3922    4.3916   24.1239 H   0  0  0  0  0  0  0  0  0  0  0  0
   -2.9788    4.6456   26.5482 H   0  0  0  0  0  0  0  0  0  0  0  0
   -1.7574    2.9525   28.2694 H   0  0  0  0  0  0  0  0  0  0  0  0
   -0.4103    2.3446   27.2749 H   0  0  0  0  0  0  0  0  0  0  0  0
   -2.3289    0.2234   27.3277 H   0  0  0  0  0  0  0  0  0  0  0  0
   -2.3865    0.9010   28.9561 H   0  0  0  0  0  0  0  0  0  0  0  0
    0.1743    0.0335   27.5835 H   0  0  0  0  0  0  0  0  0  0  0  0
   -0.4860    0.6580   30.5120 H   0  0  0  0  0  0  0  0  0  0  0  0
    0.5501    1.6147   29.4543 H   0  0  0  0  0  0  0  0  0  0  0  0
    1.8650    0.1180   30.9355 H   0  0  0  0  0  0  0  0  0  0  0  0
    2.1567   -0.2395   29.2354 H   0  0  0  0  0  0  0  0  0  0  0  0
    1.8270   -2.2164   30.4868 H   0  0  0  0  0  0  0  0  0  0  0  0
    1.0475   -2.2937   28.2543 H   0  0  0  0  0  0  0  0  0  0  0  0
    0.0469   -3.2725   29.3253 H   0  0  0  0  0  0  0  0  0  0  0  0
   -1.6345   -1.4992   29.5156 H   0  0  0  0  0  0  0  0  0  0  0  0
   -1.3566   -1.8913   27.8241 H   0  0  0  0  0  0  0  0  0  0  0  0
  1  2  1  0
  2  3  1  0
  3  4  2  0
  3  5  2  0
  3  6  1  0
  6  7  1  0
  7  8  1  0
  8  9  1  0
  9 10  1  0
 10 11  1  0
 11 12  1  0
 12 13  1  0
 13  8  1  0
  1 14  1  0
  1 15  1  0
  1 16  1  0
  2 17  1  0
  6 18  1  0
  6 19  1  0
  7 20  1  0
  7 21  1  0
  8 22  1  0
  9 23  1  0
  9 24  1  0
 10 25  1  0
 10 26  1  0
 11 27  1  0
 12 28  1  0
 12 29  1  0
 13 30  1  0
 13 31  1  0
M  END
>  <Energy>  (179) 
-63.873902937090236

>  <compound_id>  (179) 
43155

>  <target_id>  (179) 
1

>  <reference_id>  (179) 
70

>  <inspiration_ids>  (179) 
[13, 70]

>  <energy_score>  (179) 
-56.19209755587808

>  <distance_score>  (179) 
1.8579616018313423

>  <path>  (179) 
/opt/xchem-fragalysis-2/maxwin/BulkDock/SCRATCH/511023/C43155-P70/C43155-P70.minimised.mol

>  <scratch_subdir>  (179) 
/opt/xchem-fragalysis-2/maxwin/BulkDock/SCRATCH/511023/C43155-P70

>  <fragmenstein_runtime>  (179) 
2.252795457839966

>  <fragmenstein_outcome>  (179) 
too moved

>  <fragmenstein_mode>  (179) 
expansion

>  <fragmenstein_error>  (179) 


$$$$
C46299-P13
     RDKit          3D

 25 25  0  0  0  0  0  0  0  0999 V2000
    0.5184   -2.9964   28.7108 C   0  0  0  0  0  0  0  0  0  0  0  0
   -0.7364   -3.2666   29.4056 N   0  0  0  0  0  0  0  0  0  0  0  0
   -0.9705   -2.5455   30.8961 S   0  0  0  0  0  0  0  0  0  0  0  0
    0.1542   -2.9119   31.7306 O   0  0  0  0  0  0  0  0  0  0  0  0
   -2.3239   -2.8543   31.3047 O   0  0  0  0  0  0  0  0  0  0  0  0
   -0.8254   -0.7951   30.5038 C   0  0  0  0  0  0  0  0  0  0  0  0
   -1.8354   -0.3178   29.4598 C   0  0  0  0  0  0  0  0  0  0  0  0
   -1.3148    0.8938   28.6849 C   0  0  0  0  0  0  0  0  0  0  0  0
   -0.5238    0.6454   27.3878 C   0  0  0  0  0  0  0  0  0  0  0  0
   -1.3121    1.8606   26.8440 C   0  0  0  0  0  0  0  0  0  0  0  0
   -2.3582    1.5028   27.8148 N   0  0  0  0  0  0  0  0  0  0  0  0
    0.4319   -2.0935   28.1044 H   0  0  0  0  0  0  0  0  0  0  0  0
    1.3577   -2.8912   29.4029 H   0  0  0  0  0  0  0  0  0  0  0  0
    0.7502   -3.8344   28.0529 H   0  0  0  0  0  0  0  0  0  0  0  0
   -1.5708   -3.3381   28.8042 H   0  0  0  0  0  0  0  0  0  0  0  0
    0.2063   -0.6287   30.1767 H   0  0  0  0  0  0  0  0  0  0  0  0
   -0.9602   -0.2487   31.4436 H   0  0  0  0  0  0  0  0  0  0  0  0
   -2.1144   -1.1136   28.7619 H   0  0  0  0  0  0  0  0  0  0  0  0
   -2.7451   -0.0498   30.0052 H   0  0  0  0  0  0  0  0  0  0  0  0
   -0.7969    1.6192   29.3245 H   0  0  0  0  0  0  0  0  0  0  0  0
    0.5606    0.7593   27.4494 H   0  0  0  0  0  0  0  0  0  0  0  0
   -0.7694   -0.3028   26.9051 H   0  0  0  0  0  0  0  0  0  0  0  0
   -1.6299    1.8176   25.8014 H   0  0  0  0  0  0  0  0  0  0  0  0
   -0.8370    2.8294   27.0369 H   0  0  0  0  0  0  0  0  0  0  0  0
   -2.9041    2.2838   28.1917 H   0  0  0  0  0  0  0  0  0  0  0  0
  1  2  1  0
  2  3  1  0
  3  4  2  0
  3  5  2  0
  3  6  1  0
  6  7  1  0
  7  8  1  0
  8  9  1  0
  9 10  1  0
 10 11  1  0
 11  8  1  0
  1 12  1  0
  1 13  1  0
  1 14  1  0
  2 15  1  0
  6 16  1  0
  6 17  1  0
  7 18  1  0
  7 19  1  0
  8 20  1  0
  9 21  1  0
  9 22  1  0
 10 23  1  0
 10 24  1  0
 11 25  1  0
M  END
>  <Energy>  (180) 
-58.050954214702543

>  <compound_id>  (180) 
46299

>  <target_id>  (180) 
1

>  <reference_id>  (180) 
13

>  <inspiration_ids>  (180) 
[13, 70]

>  <energy_score>  (180) 
-28.739536164399112

>  <distance_score>  (180) 
1.6088513325134017

>  <path>  (180) 
/opt/xchem-fragalysis-2/maxwin/BulkDock/SCRATCH/511023/C46299-P13/C46299-P13.minimised.mol

>  <scratch_subdir>  (180) 
/opt/xchem-fragalysis-2/maxwin/BulkDock/SCRATCH/511023/C46299-P13

>  <fragmenstein_runtime>  (180) 
2.37982177734375

>  <fragmenstein_outcome>  (180) 
too moved

>  <fragmenstein_mode>  (180) 
expansion

>  <fragmenstein_error>  (180) 


$$$$
C46299-P70
     RDKit          3D

 25 25  0  0  0  0  0  0  0  0999 V2000
    0.4730   -3.1119   28.5675 C   0  0  0  0  0  0  0  0  0  0  0  0
   -0.7806   -3.2901   29.2981 N   0  0  0  0  0  0  0  0  0  0  0  0
   -0.9371   -2.5847   30.8061 S   0  0  0  0  0  0  0  0  0  0  0  0
    0.1801   -3.0351   31.6086 O   0  0  0  0  0  0  0  0  0  0  0  0
   -2.2990   -2.8312   31.2313 O   0  0  0  0  0  0  0  0  0  0  0  0
   -0.7068   -0.8323   30.4523 C   0  0  0  0  0  0  0  0  0  0  0  0
   -1.7143   -0.2743   29.4455 C   0  0  0  0  0  0  0  0  0  0  0  0
   -1.1910    0.9873   28.7619 C   0  0  0  0  0  0  0  0  0  0  0  0
   -0.2331    0.8308   27.5665 C   0  0  0  0  0  0  0  0  0  0  0  0
   -1.0246    2.0151   26.9650 C   0  0  0  0  0  0  0  0  0  0  0  0
   -2.1639    1.5591   27.7847 N   0  0  0  0  0  0  0  0  0  0  0  0
    0.6119   -3.9659   27.8995 H   0  0  0  0  0  0  0  0  0  0  0  0
    0.4380   -2.2020   27.9661 H   0  0  0  0  0  0  0  0  0  0  0  0
    1.3364   -3.0767   29.2366 H   0  0  0  0  0  0  0  0  0  0  0  0
   -1.6299   -3.3140   28.7186 H   0  0  0  0  0  0  0  0  0  0  0  0
    0.3235   -0.7155   30.1005 H   0  0  0  0  0  0  0  0  0  0  0  0
   -0.7876   -0.3032   31.4080 H   0  0  0  0  0  0  0  0  0  0  0  0
   -1.9860   -1.0193   28.6908 H   0  0  0  0  0  0  0  0  0  0  0  0
   -2.6231   -0.0319   30.0047 H   0  0  0  0  0  0  0  0  0  0  0  0
   -0.8067    1.7191   29.4809 H   0  0  0  0  0  0  0  0  0  0  0  0
    0.8261    1.0106   27.7645 H   0  0  0  0  0  0  0  0  0  0  0  0
   -0.3483   -0.1146   27.0315 H   0  0  0  0  0  0  0  0  0  0  0  0
   -1.1962    1.9947   25.8877 H   0  0  0  0  0  0  0  0  0  0  0  0
   -0.6412    3.0028   27.2476 H   0  0  0  0  0  0  0  0  0  0  0  0
   -2.7719    2.3107   28.1273 H   0  0  0  0  0  0  0  0  0  0  0  0
  1  2  1  0
  2  3  1  0
  3  4  2  0
  3  5  2  0
  3  6  1  0
  6  7  1  0
  7  8  1  0
  8  9  1  0
  9 10  1  0
 10 11  1  0
 11  8  1  0
  1 12  1  0
  1 13  1  0
  1 14  1  0
  2 15  1  0
  6 16  1  0
  6 17  1  0
  7 18  1  0
  7 19  1  0
  8 20  1  0
  9 21  1  0
  9 22  1  0
 10 23  1  0
 10 24  1  0
 11 25  1  0
M  END
>  <Energy>  (181) 
-59.479171743930436

>  <compound_id>  (181) 
46299

>  <target_id>  (181) 
1

>  <reference_id>  (181) 
70

>  <inspiration_ids>  (181) 
[13, 70]

>  <energy_score>  (181) 
-30.167753693627418

>  <distance_score>  (181) 
1.53024306972229

>  <path>  (181) 
/opt/xchem-fragalysis-2/maxwin/BulkDock/SCRATCH/511023/C46299-P70/C46299-P70.minimised.mol

>  <scratch_subdir>  (181) 
/opt/xchem-fragalysis-2/maxwin/BulkDock/SCRATCH/511023/C46299-P70

>  <fragmenstein_runtime>  (181) 
1.8180804252624512

>  <fragmenstein_outcome>  (181) 
too moved

>  <fragmenstein_mode>  (181) 
expansion

>  <fragmenstein_error>  (181) 


$$$$
C46303-P13
     RDKit          3D

 25 25  0  0  0  0  0  0  0  0999 V2000
    0.5269   -3.0369   28.7338 C   0  0  0  0  0  0  0  0  0  0  0  0
   -0.7553   -3.2212   29.4016 N   0  0  0  0  0  0  0  0  0  0  0  0
   -0.9844   -2.4690   30.8759 S   0  0  0  0  0  0  0  0  0  0  0  0
    0.1021   -2.8847   31.7372 O   0  0  0  0  0  0  0  0  0  0  0  0
   -2.3602   -2.7088   31.2528 O   0  0  0  0  0  0  0  0  0  0  0  0
   -0.7435   -0.7282   30.4684 C   0  0  0  0  0  0  0  0  0  0  0  0
   -1.6813   -0.1994   29.3767 C   0  0  0  0  0  0  0  0  0  0  0  0
   -1.1009    1.0440   28.6814 C   0  0  0  0  0  0  0  0  0  0  0  0
   -0.2587    0.8702   27.3987 C   0  0  0  0  0  0  0  0  0  0  0  0
   -1.4732    1.0933   26.5938 N   0  0  0  0  0  0  0  0  0  0  0  0
   -2.0430    1.8374   27.7316 C   0  0  0  0  0  0  0  0  0  0  0  0
    0.7384   -3.9075   28.1128 H   0  0  0  0  0  0  0  0  0  0  0  0
    0.4961   -2.1568   28.0921 H   0  0  0  0  0  0  0  0  0  0  0  0
    1.3529   -2.9404   29.4430 H   0  0  0  0  0  0  0  0  0  0  0  0
   -1.5833   -3.2961   28.7934 H   0  0  0  0  0  0  0  0  0  0  0  0
   -0.8857   -0.1653   31.3974 H   0  0  0  0  0  0  0  0  0  0  0  0
    0.3069   -0.6176   30.1789 H   0  0  0  0  0  0  0  0  0  0  0  0
   -1.9159   -0.9663   28.6319 H   0  0  0  0  0  0  0  0  0  0  0  0
   -2.6261    0.0594   29.8625 H   0  0  0  0  0  0  0  0  0  0  0  0
   -0.5890    1.6835   29.4114 H   0  0  0  0  0  0  0  0  0  0  0  0
    0.2153   -0.1031   27.2667 H   0  0  0  0  0  0  0  0  0  0  0  0
    0.5049    1.6447   27.2554 H   0  0  0  0  0  0  0  0  0  0  0  0
   -1.9724    0.2224   26.3861 H   0  0  0  0  0  0  0  0  0  0  0  0
   -3.1139    1.7030   27.8456 H   0  0  0  0  0  0  0  0  0  0  0  0
   -1.8354    2.9141   27.6940 H   0  0  0  0  0  0  0  0  0  0  0  0
  1  2  1  0
  2  3  1  0
  3  4  2  0
  3  5  2  0
  3  6  1  0
  6  7  1  0
  7  8  1  0
  8  9  1  0
  9 10  1  0
 10 11  1  0
 11  8  1  0
  1 12  1  0
  1 13  1  0
  1 14  1  0
  2 15  1  0
  6 16  1  0
  6 17  1  0
  7 18  1  0
  7 19  1  0
  8 20  1  0
  9 21  1  0
  9 22  1  0
 10 23  1  0
 11 24  1  0
 11 25  1  0
M  END
>  <Energy>  (182) 
-50.903599611914871

>  <compound_id>  (182) 
46303

>  <target_id>  (182) 
1

>  <reference_id>  (182) 
13

>  <inspiration_ids>  (182) 
[13, 70]

>  <energy_score>  (182) 
-32.01877348705466

>  <distance_score>  (182) 
1.8661505543741055

>  <path>  (182) 
/opt/xchem-fragalysis-2/maxwin/BulkDock/SCRATCH/511023/C46303-P13/C46303-P13.minimised.mol

>  <scratch_subdir>  (182) 
/opt/xchem-fragalysis-2/maxwin/BulkDock/SCRATCH/511023/C46303-P13

>  <fragmenstein_runtime>  (182) 
1.8505868911743164

>  <fragmenstein_outcome>  (182) 
too moved

>  <fragmenstein_mode>  (182) 
expansion

>  <fragmenstein_error>  (182) 


$$$$
C46303-P70
     RDKit          3D

 25 25  0  0  0  0  0  0  0  0999 V2000
    0.4514   -3.1255   28.5825 C   0  0  0  0  0  0  0  0  0  0  0  0
   -0.8208   -3.2033   29.2927 N   0  0  0  0  0  0  0  0  0  0  0  0
   -0.9583   -2.4987   30.8002 S   0  0  0  0  0  0  0  0  0  0  0  0
    0.1312   -3.0041   31.6073 O   0  0  0  0  0  0  0  0  0  0  0  0
   -2.3334   -2.6920   31.2078 O   0  0  0  0  0  0  0  0  0  0  0  0
   -0.6511   -0.7525   30.4563 C   0  0  0  0  0  0  0  0  0  0  0  0
   -1.6389   -0.1132   29.4711 C   0  0  0  0  0  0  0  0  0  0  0  0
   -1.0256    1.1098   28.7639 C   0  0  0  0  0  0  0  0  0  0  0  0
   -0.2881    0.8687   27.4264 C   0  0  0  0  0  0  0  0  0  0  0  0
   -1.5496    1.1635   26.7074 N   0  0  0  0  0  0  0  0  0  0  0  0
   -1.9427    1.9918   27.8680 C   0  0  0  0  0  0  0  0  0  0  0  0
    1.3043   -3.0821   29.2642 H   0  0  0  0  0  0  0  0  0  0  0  0
    0.5663   -4.0238   27.9698 H   0  0  0  0  0  0  0  0  0  0  0  0
    0.4663   -2.2550   27.9267 H   0  0  0  0  0  0  0  0  0  0  0  0
   -1.6690   -3.2440   28.7157 H   0  0  0  0  0  0  0  0  0  0  0  0
   -0.6878   -0.2325   31.4197 H   0  0  0  0  0  0  0  0  0  0  0  0
    0.3788   -0.6861   30.0896 H   0  0  0  0  0  0  0  0  0  0  0  0
   -1.9844   -0.8380   28.7273 H   0  0  0  0  0  0  0  0  0  0  0  0
   -2.5195    0.1996   30.0409 H   0  0  0  0  0  0  0  0  0  0  0  0
   -0.4410    1.7053   29.4767 H   0  0  0  0  0  0  0  0  0  0  0  0
    0.1069   -0.1369   27.2764 H   0  0  0  0  0  0  0  0  0  0  0  0
    0.5121    1.5888   27.2151 H   0  0  0  0  0  0  0  0  0  0  0  0
   -2.1543    0.3476   26.6013 H   0  0  0  0  0  0  0  0  0  0  0  0
   -3.0062    1.9817   28.0739 H   0  0  0  0  0  0  0  0  0  0  0  0
   -1.6197    3.0373   27.7856 H   0  0  0  0  0  0  0  0  0  0  0  0
  1  2  1  0
  2  3  1  0
  3  4  2  0
  3  5  2  0
  3  6  1  0
  6  7  1  0
  7  8  1  0
  8  9  1  0
  9 10  1  0
 10 11  1  0
 11  8  1  0
  1 12  1  0
  1 13  1  0
  1 14  1  0
  2 15  1  0
  6 16  1  0
  6 17  1  0
  7 18  1  0
  7 19  1  0
  8 20  1  0
  9 21  1  0
  9 22  1  0
 10 23  1  0
 11 24  1  0
 11 25  1  0
M  END
>  <Energy>  (183) 
-51.25305613163826

>  <compound_id>  (183) 
46303

>  <target_id>  (183) 
1

>  <reference_id>  (183) 
70

>  <inspiration_ids>  (183) 
[13, 70]

>  <energy_score>  (183) 
-32.36823000677863

>  <distance_score>  (183) 
1.809658355569637

>  <path>  (183) 
/opt/xchem-fragalysis-2/maxwin/BulkDock/SCRATCH/511023/C46303-P70/C46303-P70.minimised.mol

>  <scratch_subdir>  (183) 
/opt/xchem-fragalysis-2/maxwin/BulkDock/SCRATCH/511023/C46303-P70

>  <fragmenstein_runtime>  (183) 
1.965663194656372

>  <fragmenstein_outcome>  (183) 
too moved

>  <fragmenstein_mode>  (183) 
expansion

>  <fragmenstein_error>  (183) 


$$$$
C39165-P13
     RDKit          3D

 28 28  0  0  0  0  0  0  0  0999 V2000
   -2.3581    4.3374   24.5048 C   0  0  0  0  0  0  0  0  0  0  0  0
   -2.3639    3.9290   25.9225 N   0  0  0  0  0  0  0  0  0  0  0  0
   -2.8090    2.3260   26.1695 S   0  0  0  0  0  0  0  0  0  0  0  0
   -2.2061    1.5656   25.1084 O   0  0  0  0  0  0  0  0  0  0  0  0
   -4.2318    2.2937   26.4045 O   0  0  0  0  0  0  0  0  0  0  0  0
   -1.9216    1.9306   27.6557 C   0  0  0  0  0  0  0  0  0  0  0  0
   -1.6950    0.4312   27.7753 C   0  0  0  0  0  0  0  0  0  0  0  0
   -1.3403   -0.0385   29.1923 C   0  0  0  0  0  0  0  0  0  0  0  0
   -0.0490    0.5608   29.7295 C   0  0  0  0  0  0  0  0  0  0  0  0
    1.0410   -0.3128   29.1254 C   0  0  0  0  0  0  0  0  0  0  0  0
    0.4002   -1.5666   28.7000 N   0  0  0  0  0  0  0  0  0  0  0  0
   -0.9864   -1.5209   29.1854 C   0  0  0  0  0  0  0  0  0  0  0  0
   -1.5803    3.8099   23.9467 H   0  0  0  0  0  0  0  0  0  0  0  0
   -3.3382    4.1689   24.0492 H   0  0  0  0  0  0  0  0  0  0  0  0
   -2.1451    5.4093   24.4521 H   0  0  0  0  0  0  0  0  0  0  0  0
   -2.9851    4.5510   26.4570 H   0  0  0  0  0  0  0  0  0  0  0  0
   -2.5099    2.3283   28.4706 H   0  0  0  0  0  0  0  0  0  0  0  0
   -0.9600    2.4508   27.6119 H   0  0  0  0  0  0  0  0  0  0  0  0
   -2.5840   -0.1148   27.4460 H   0  0  0  0  0  0  0  0  0  0  0  0
   -0.9108    0.1535   27.0617 H   0  0  0  0  0  0  0  0  0  0  0  0
   -2.1794    0.1599   29.8668 H   0  0  0  0  0  0  0  0  0  0  0  0
    0.0884    1.6191   29.4944 H   0  0  0  0  0  0  0  0  0  0  0  0
   -0.0313    0.4612   30.8225 H   0  0  0  0  0  0  0  0  0  0  0  0
    1.8357   -0.5112   29.8514 H   0  0  0  0  0  0  0  0  0  0  0  0
    1.4953    0.1794   28.2581 H   0  0  0  0  0  0  0  0  0  0  0  0
    0.3691   -1.5810   27.6762 H   0  0  0  0  0  0  0  0  0  0  0  0
   -1.6508   -2.1195   28.5562 H   0  0  0  0  0  0  0  0  0  0  0  0
   -1.0247   -1.9322   30.2010 H   0  0  0  0  0  0  0  0  0  0  0  0
  1  2  1  0
  2  3  1  0
  3  4  2  0
  3  5  2  0
  3  6  1  0
  6  7  1  0
  7  8  1  0
  8  9  1  0
  9 10  1  0
 10 11  1  0
 11 12  1  0
 12  8  1  0
  1 13  1  0
  1 14  1  0
  1 15  1  0
  2 16  1  0
  6 17  1  0
  6 18  1  0
  7 19  1  0
  7 20  1  0
  8 21  1  0
  9 22  1  0
  9 23  1  0
 10 24  1  0
 10 25  1  0
 11 26  1  0
 12 27  1  0
 12 28  1  0
M  END
>  <Energy>  (184) 
-58.265739417558692

>  <compound_id>  (184) 
39165

>  <target_id>  (184) 
1

>  <reference_id>  (184) 
13

>  <inspiration_ids>  (184) 
[13, 70]

>  <energy_score>  (184) 
-30.560546966391172

>  <distance_score>  (184) 
1.1992450541351083

>  <path>  (184) 
/opt/xchem-fragalysis-2/maxwin/BulkDock/SCRATCH/511023/C39165-P13/C39165-P13.minimised.mol

>  <scratch_subdir>  (184) 
/opt/xchem-fragalysis-2/maxwin/BulkDock/SCRATCH/511023/C39165-P13

>  <fragmenstein_runtime>  (184) 
5.089676856994629

>  <fragmenstein_outcome>  (184) 
too moved

>  <fragmenstein_mode>  (184) 
expansion

>  <fragmenstein_error>  (184) 


$$$$
C39165-P70
     RDKit          3D

 28 28  0  0  0  0  0  0  0  0999 V2000
   -2.2517    4.5414   24.8505 C   0  0  0  0  0  0  0  0  0  0  0  0
   -2.0339    4.0230   26.2181 N   0  0  0  0  0  0  0  0  0  0  0  0
   -2.3450    2.3873   26.3855 S   0  0  0  0  0  0  0  0  0  0  0  0
   -1.8580    1.7592   25.1830 O   0  0  0  0  0  0  0  0  0  0  0  0
   -3.7264    2.2574   26.7708 O   0  0  0  0  0  0  0  0  0  0  0  0
   -1.2459    1.9001   27.7214 C   0  0  0  0  0  0  0  0  0  0  0  0
   -1.8262    0.7192   28.4828 C   0  0  0  0  0  0  0  0  0  0  0  0
   -0.9834   -0.0563   29.4998 C   0  0  0  0  0  0  0  0  0  0  0  0
    0.2278    0.6760   30.0499 C   0  0  0  0  0  0  0  0  0  0  0  0
    1.3690    0.2790   29.1246 C   0  0  0  0  0  0  0  0  0  0  0  0
    0.9108   -0.8714   28.3471 N   0  0  0  0  0  0  0  0  0  0  0  0
   -0.3612   -1.3112   28.9038 C   0  0  0  0  0  0  0  0  0  0  0  0
   -1.5232    4.1224   24.1517 H   0  0  0  0  0  0  0  0  0  0  0  0
   -3.2712    4.3319   24.5140 H   0  0  0  0  0  0  0  0  0  0  0  0
   -2.1205    5.6276   24.8654 H   0  0  0  0  0  0  0  0  0  0  0  0
   -2.6256    4.5422   26.8777 H   0  0  0  0  0  0  0  0  0  0  0  0
   -1.1338    2.7660   28.3794 H   0  0  0  0  0  0  0  0  0  0  0  0
   -0.2835    1.6713   27.2587 H   0  0  0  0  0  0  0  0  0  0  0  0
   -2.6287    1.1565   29.0771 H   0  0  0  0  0  0  0  0  0  0  0  0
   -2.2953    0.0138   27.7867 H   0  0  0  0  0  0  0  0  0  0  0  0
   -1.6480   -0.3508   30.3225 H   0  0  0  0  0  0  0  0  0  0  0  0
    0.0998    1.7589   30.1233 H   0  0  0  0  0  0  0  0  0  0  0  0
    0.4424    0.3057   31.0608 H   0  0  0  0  0  0  0  0  0  0  0  0
    2.2644    0.0211   29.6998 H   0  0  0  0  0  0  0  0  0  0  0  0
    1.6386    1.1028   28.4557 H   0  0  0  0  0  0  0  0  0  0  0  0
    0.8115   -0.6326   27.3615 H   0  0  0  0  0  0  0  0  0  0  0  0
   -0.9891   -1.8018   28.1541 H   0  0  0  0  0  0  0  0  0  0  0  0
   -0.1644   -2.0456   29.6942 H   0  0  0  0  0  0  0  0  0  0  0  0
  1  2  1  0
  2  3  1  0
  3  4  2  0
  3  5  2  0
  3  6  1  0
  6  7  1  0
  7  8  1  0
  8  9  1  0
  9 10  1  0
 10 11  1  0
 11 12  1  0
 12  8  1  0
  1 13  1  0
  1 14  1  0
  1 15  1  0
  2 16  1  0
  6 17  1  0
  6 18  1  0
  7 19  1  0
  7 20  1  0
  8 21  1  0
  9 22  1  0
  9 23  1  0
 10 24  1  0
 10 25  1  0
 11 26  1  0
 12 27  1  0
 12 28  1  0
M  END
>  <Energy>  (185) 
-52.81445447700861

>  <compound_id>  (185) 
39165

>  <target_id>  (185) 
1

>  <reference_id>  (185) 
70

>  <inspiration_ids>  (185) 
[13, 70]

>  <energy_score>  (185) 
-25.109262025841076

>  <distance_score>  (185) 
1.2426841383582956

>  <path>  (185) 
/opt/xchem-fragalysis-2/maxwin/BulkDock/SCRATCH/511023/C39165-P70/C39165-P70.minimised.mol

>  <scratch_subdir>  (185) 
/opt/xchem-fragalysis-2/maxwin/BulkDock/SCRATCH/511023/C39165-P70

>  <fragmenstein_runtime>  (185) 
3.3007442951202393

>  <fragmenstein_outcome>  (185) 
too moved

>  <fragmenstein_mode>  (185) 
expansion

>  <fragmenstein_error>  (185) 


$$$$
C43156-P13
     RDKit          3D

 31 31  0  0  0  0  0  0  0  0999 V2000
   -2.8527    2.8776   25.9119 C   0  0  0  0  0  0  0  0  0  0  0  0
   -2.4985    1.7347   26.8456 C   0  0  0  0  0  0  0  0  0  0  0  0
   -0.8845    2.0034   27.5511 S   0  0  0  0  0  0  0  0  0  0  0  0
   -0.9500    3.1470   28.4270 O   0  0  0  0  0  0  0  0  0  0  0  0
    0.0556    1.9640   26.4603 O   0  0  0  0  0  0  0  0  0  0  0  0
   -0.5066    0.6337   28.5130 N   0  0  0  0  0  0  0  0  0  0  0  0
   -0.5360   -0.6223   27.7403 C   0  0  0  0  0  0  0  0  0  0  0  0
    0.7894    0.8329   29.3108 C   0  0  0  0  0  0  0  0  0  0  0  0
    0.4423    1.2958   30.7241 C   0  0  0  0  0  0  0  0  0  0  0  0
   -0.3402    0.2275   31.4880 C   0  0  0  0  0  0  0  0  0  0  0  0
   -0.0136   -1.1508   31.1076 N   0  0  0  0  0  0  0  0  0  0  0  0
    1.3751   -1.2696   30.6754 C   0  0  0  0  0  0  0  0  0  0  0  0
    1.7033   -0.4040   29.4525 C   0  0  0  0  0  0  0  0  0  0  0  0
   -2.1876    2.8970   25.0425 H   0  0  0  0  0  0  0  0  0  0  0  0
   -2.7679    3.8435   26.4178 H   0  0  0  0  0  0  0  0  0  0  0  0
   -3.8808    2.7703   25.5544 H   0  0  0  0  0  0  0  0  0  0  0  0
   -3.2003    1.6898   27.6718 H   0  0  0  0  0  0  0  0  0  0  0  0
   -2.5049    0.7998   26.2860 H   0  0  0  0  0  0  0  0  0  0  0  0
   -0.4552   -1.5034   28.3771 H   0  0  0  0  0  0  0  0  0  0  0  0
    0.2842   -0.6327   27.0284 H   0  0  0  0  0  0  0  0  0  0  0  0
   -1.4896   -0.7450   27.2262 H   0  0  0  0  0  0  0  0  0  0  0  0
    1.3853    1.6069   28.8103 H   0  0  0  0  0  0  0  0  0  0  0  0
   -0.1007    2.2414   30.7187 H   0  0  0  0  0  0  0  0  0  0  0  0
    1.3771    1.5030   31.2636 H   0  0  0  0  0  0  0  0  0  0  0  0
   -0.1685    0.3559   32.5630 H   0  0  0  0  0  0  0  0  0  0  0  0
   -1.4154    0.3683   31.3340 H   0  0  0  0  0  0  0  0  0  0  0  0
   -0.6316   -1.4167   30.3428 H   0  0  0  0  0  0  0  0  0  0  0  0
    2.0382   -1.0076   31.5098 H   0  0  0  0  0  0  0  0  0  0  0  0
    1.5911   -2.3185   30.4430 H   0  0  0  0  0  0  0  0  0  0  0  0
    2.7328   -0.0435   29.5902 H   0  0  0  0  0  0  0  0  0  0  0  0
    1.7492   -1.0146   28.5473 H   0  0  0  0  0  0  0  0  0  0  0  0
  1  2  1  0
  2  3  1  0
  3  4  2  0
  3  5  2  0
  3  6  1  0
  6  7  1  0
  6  8  1  0
  8  9  1  0
  9 10  1  0
 10 11  1  0
 11 12  1  0
 12 13  1  0
 13  8  1  0
  1 14  1  0
  1 15  1  0
  1 16  1  0
  2 17  1  0
  2 18  1  0
  7 19  1  0
  7 20  1  0
  7 21  1  0
  8 22  1  0
  9 23  1  0
  9 24  1  0
 10 25  1  0
 10 26  1  0
 11 27  1  0
 12 28  1  0
 12 29  1  0
 13 30  1  0
 13 31  1  0
M  END
>  <Energy>  (186) 
-39.076447671964893

>  <compound_id>  (186) 
43156

>  <target_id>  (186) 
1

>  <reference_id>  (186) 
13

>  <inspiration_ids>  (186) 
[13, 70]

>  <energy_score>  (186) 
-43.225561452277574

>  <distance_score>  (186) 
2.1003045694517595

>  <path>  (186) 
/opt/xchem-fragalysis-2/maxwin/BulkDock/SCRATCH/511023/C43156-P13/C43156-P13.minimised.mol

>  <scratch_subdir>  (186) 
/opt/xchem-fragalysis-2/maxwin/BulkDock/SCRATCH/511023/C43156-P13

>  <fragmenstein_runtime>  (186) 
3.5480966567993164

>  <fragmenstein_outcome>  (186) 
too moved

>  <fragmenstein_mode>  (186) 
expansion

>  <fragmenstein_error>  (186) 


$$$$
C43156-P70
     RDKit          3D

 31 31  0  0  0  0  0  0  0  0999 V2000
   -2.3948    3.5222   26.3263 C   0  0  0  0  0  0  0  0  0  0  0  0
   -1.3954    3.1740   27.4137 C   0  0  0  0  0  0  0  0  0  0  0  0
   -1.4097    1.4292   27.7729 S   0  0  0  0  0  0  0  0  0  0  0  0
   -1.5928    0.7731   26.5029 O   0  0  0  0  0  0  0  0  0  0  0  0
   -2.3207    1.1609   28.8524 O   0  0  0  0  0  0  0  0  0  0  0  0
    0.1547    1.0818   28.3082 N   0  0  0  0  0  0  0  0  0  0  0  0
    1.2480    1.3448   27.3673 C   0  0  0  0  0  0  0  0  0  0  0  0
    0.5354    1.0949   29.7677 C   0  0  0  0  0  0  0  0  0  0  0  0
   -0.3743    0.2360   30.6585 C   0  0  0  0  0  0  0  0  0  0  0  0
   -0.4485   -1.2105   30.1640 C   0  0  0  0  0  0  0  0  0  0  0  0
    0.7494   -1.6370   29.4362 N   0  0  0  0  0  0  0  0  0  0  0  0
    1.9627   -1.0391   29.9896 C   0  0  0  0  0  0  0  0  0  0  0  0
    1.9493    0.5005   30.0029 C   0  0  0  0  0  0  0  0  0  0  0  0
   -3.4006    3.1828   26.5905 H   0  0  0  0  0  0  0  0  0  0  0  0
   -2.1245    3.0571   25.3726 H   0  0  0  0  0  0  0  0  0  0  0  0
   -2.4195    4.6039   26.1702 H   0  0  0  0  0  0  0  0  0  0  0  0
   -0.3966    3.4579   27.0753 H   0  0  0  0  0  0  0  0  0  0  0  0
   -1.6124    3.7105   28.3391 H   0  0  0  0  0  0  0  0  0  0  0  0
    1.8538    0.4463   27.2244 H   0  0  0  0  0  0  0  0  0  0  0  0
    1.8766    2.1679   27.7217 H   0  0  0  0  0  0  0  0  0  0  0  0
    0.8782    1.6552   26.3878 H   0  0  0  0  0  0  0  0  0  0  0  0
    0.5292    2.1380   30.1054 H   0  0  0  0  0  0  0  0  0  0  0  0
   -1.3744    0.6459   30.7952 H   0  0  0  0  0  0  0  0  0  0  0  0
    0.0438    0.2337   31.6762 H   0  0  0  0  0  0  0  0  0  0  0  0
   -0.6111   -1.8769   31.0191 H   0  0  0  0  0  0  0  0  0  0  0  0
   -1.3161   -1.3434   29.5079 H   0  0  0  0  0  0  0  0  0  0  0  0
    0.6455   -1.3288   28.4632 H   0  0  0  0  0  0  0  0  0  0  0  0
    2.1187   -1.4160   31.0083 H   0  0  0  0  0  0  0  0  0  0  0  0
    2.8254   -1.3862   29.4094 H   0  0  0  0  0  0  0  0  0  0  0  0
    2.6993    0.8891   29.3088 H   0  0  0  0  0  0  0  0  0  0  0  0
    2.2937    0.8249   30.9951 H   0  0  0  0  0  0  0  0  0  0  0  0
  1  2  1  0
  2  3  1  0
  3  4  2  0
  3  5  2  0
  3  6  1  0
  6  7  1  0
  6  8  1  0
  8  9  1  0
  9 10  1  0
 10 11  1  0
 11 12  1  0
 12 13  1  0
 13  8  1  0
  1 14  1  0
  1 15  1  0
  1 16  1  0
  2 17  1  0
  2 18  1  0
  7 19  1  0
  7 20  1  0
  7 21  1  0
  8 22  1  0
  9 23  1  0
  9 24  1  0
 10 25  1  0
 10 26  1  0
 11 27  1  0
 12 28  1  0
 12 29  1  0
 13 30  1  0
 13 31  1  0
M  END
>  <Energy>  (187) 
-36.520746364269797

>  <compound_id>  (187) 
43156

>  <target_id>  (187) 
1

>  <reference_id>  (187) 
70

>  <inspiration_ids>  (187) 
[13, 70]

>  <energy_score>  (187) 
-40.66986014458268

>  <distance_score>  (187) 
2.195970844853986

>  <path>  (187) 
/opt/xchem-fragalysis-2/maxwin/BulkDock/SCRATCH/511023/C43156-P70/C43156-P70.minimised.mol

>  <scratch_subdir>  (187) 
/opt/xchem-fragalysis-2/maxwin/BulkDock/SCRATCH/511023/C43156-P70

>  <fragmenstein_runtime>  (187) 
3.518381118774414

>  <fragmenstein_outcome>  (187) 
too moved

>  <fragmenstein_mode>  (187) 
expansion

>  <fragmenstein_error>  (187) 


$$$$
C46310-P13
     RDKit          3D

 30 30  0  0  0  0  0  0  0  0999 V2000
    0.5350   -3.0231   28.6161 C   0  0  0  0  0  0  0  0  0  0  0  0
   -0.7665   -3.0249   29.2787 N   0  0  0  0  0  0  0  0  0  0  0  0
   -0.9546   -1.9339   30.5336 S   0  0  0  0  0  0  0  0  0  0  0  0
    0.1151   -2.2039   31.4734 O   0  0  0  0  0  0  0  0  0  0  0  0
   -2.3321   -2.0296   30.9648 O   0  0  0  0  0  0  0  0  0  0  0  0
   -0.6335   -0.3295   29.7291 C   0  0  0  0  0  0  0  0  0  0  0  0
   -1.6591    0.0393   28.6308 C   0  0  0  0  0  0  0  0  0  0  0  0
   -1.2760    1.0045   27.5403 N   0  0  0  0  0  0  0  0  0  0  0  0
   -0.6175    2.2269   28.0188 C   0  0  0  0  0  0  0  0  0  0  0  0
   -0.4009    3.2946   26.9213 C   0  0  0  0  0  0  0  0  0  0  0  0
   -1.6449    3.7114   26.2686 N   0  0  0  0  0  0  0  0  0  0  0  0
   -2.3249    2.5462   25.7219 C   0  0  0  0  0  0  0  0  0  0  0  0
   -2.4846    1.4005   26.7564 C   0  0  0  0  0  0  0  0  0  0  0  0
    1.3589   -2.9530   29.3310 H   0  0  0  0  0  0  0  0  0  0  0  0
    0.5990   -2.1994   27.9031 H   0  0  0  0  0  0  0  0  0  0  0  0
    0.6639   -3.9584   28.0740 H   0  0  0  0  0  0  0  0  0  0  0  0
   -1.5818   -3.1359   28.6582 H   0  0  0  0  0  0  0  0  0  0  0  0
   -0.6396    0.4227   30.5250 H   0  0  0  0  0  0  0  0  0  0  0  0
    0.3831   -0.3761   29.3279 H   0  0  0  0  0  0  0  0  0  0  0  0
   -2.0026   -0.8734   28.1316 H   0  0  0  0  0  0  0  0  0  0  0  0
   -2.5154    0.4458   29.1741 H   0  0  0  0  0  0  0  0  0  0  0  0
   -1.2058    2.7018   28.7979 H   0  0  0  0  0  0  0  0  0  0  0  0
    0.3589    1.9748   28.4471 H   0  0  0  0  0  0  0  0  0  0  0  0
    0.0640    4.1763   27.3767 H   0  0  0  0  0  0  0  0  0  0  0  0
    0.3036    2.9154   26.1703 H   0  0  0  0  0  0  0  0  0  0  0  0
   -1.4666    4.4018   25.5424 H   0  0  0  0  0  0  0  0  0  0  0  0
   -3.3191    2.8487   25.3750 H   0  0  0  0  0  0  0  0  0  0  0  0
   -1.7797    2.1946   24.8441 H   0  0  0  0  0  0  0  0  0  0  0  0
   -2.8448    0.5172   26.2231 H   0  0  0  0  0  0  0  0  0  0  0  0
   -3.2696    1.7220   27.4471 H   0  0  0  0  0  0  0  0  0  0  0  0
  1  2  1  0
  2  3  1  0
  3  4  2  0
  3  5  2  0
  3  6  1  0
  6  7  1  0
  7  8  1  0
  8  9  1  0
  9 10  1  0
 10 11  1  0
 11 12  1  0
 12 13  1  0
 13  8  1  0
  1 14  1  0
  1 15  1  0
  1 16  1  0
  2 17  1  0
  6 18  1  0
  6 19  1  0
  7 20  1  0
  7 21  1  0
  9 22  1  0
  9 23  1  0
 10 24  1  0
 10 25  1  0
 11 26  1  0
 12 27  1  0
 12 28  1  0
 13 29  1  0
 13 30  1  0
M  END
>  <Energy>  (188) 
2.5368024817222778

>  <compound_id>  (188) 
46310

>  <target_id>  (188) 
1

>  <reference_id>  (188) 
13

>  <inspiration_ids>  (188) 
[13, 70]

>  <energy_score>  (188) 
-55.107327279155584

>  <distance_score>  (188) 
1.9061130652094418

>  <path>  (188) 
/opt/xchem-fragalysis-2/maxwin/BulkDock/SCRATCH/511023/C46310-P13/C46310-P13.minimised.mol

>  <scratch_subdir>  (188) 
/opt/xchem-fragalysis-2/maxwin/BulkDock/SCRATCH/511023/C46310-P13

>  <fragmenstein_runtime>  (188) 
10.44642424583435

>  <fragmenstein_outcome>  (188) 
too moved

>  <fragmenstein_mode>  (188) 
expansion

>  <fragmenstein_error>  (188) 


$$$$
C46310-P70
     RDKit          3D

 30 30  0  0  0  0  0  0  0  0999 V2000
    0.4068   -3.2773   28.4664 C   0  0  0  0  0  0  0  0  0  0  0  0
   -0.8489   -3.1512   29.2056 N   0  0  0  0  0  0  0  0  0  0  0  0
   -0.8836   -2.0875   30.4952 S   0  0  0  0  0  0  0  0  0  0  0  0
    0.2197   -2.4449   31.3632 O   0  0  0  0  0  0  0  0  0  0  0  0
   -2.2386   -2.1059   31.0026 O   0  0  0  0  0  0  0  0  0  0  0  0
   -0.5149   -0.4889   29.7153 C   0  0  0  0  0  0  0  0  0  0  0  0
   -1.5826   -0.0138   28.7016 C   0  0  0  0  0  0  0  0  0  0  0  0
   -1.1842    0.9684   27.6314 N   0  0  0  0  0  0  0  0  0  0  0  0
   -0.3878    2.0945   28.1494 C   0  0  0  0  0  0  0  0  0  0  0  0
   -0.1710    3.2564   27.1463 C   0  0  0  0  0  0  0  0  0  0  0  0
   -1.4047    3.7663   26.5380 N   0  0  0  0  0  0  0  0  0  0  0  0
   -2.1288    2.6613   25.9321 C   0  0  0  0  0  0  0  0  0  0  0  0
   -2.3893    1.5279   26.9539 C   0  0  0  0  0  0  0  0  0  0  0  0
    1.2724   -3.3038   29.1328 H   0  0  0  0  0  0  0  0  0  0  0  0
    0.5156   -2.4582   27.7530 H   0  0  0  0  0  0  0  0  0  0  0  0
    0.3916   -4.2206   27.9134 H   0  0  0  0  0  0  0  0  0  0  0  0
   -1.6991   -3.2026   28.6308 H   0  0  0  0  0  0  0  0  0  0  0  0
   -0.4124    0.2376   30.5287 H   0  0  0  0  0  0  0  0  0  0  0  0
    0.4653   -0.5958   29.2406 H   0  0  0  0  0  0  0  0  0  0  0  0
   -2.0089   -0.8805   28.1851 H   0  0  0  0  0  0  0  0  0  0  0  0
   -2.3826    0.4242   29.3075 H   0  0  0  0  0  0  0  0  0  0  0  0
   -0.8590    2.5115   29.0368 H   0  0  0  0  0  0  0  0  0  0  0  0
    0.6000    1.7290   28.4529 H   0  0  0  0  0  0  0  0  0  0  0  0
    0.3278    4.0813   27.6673 H   0  0  0  0  0  0  0  0  0  0  0  0
    0.5120    2.9234   26.3541 H   0  0  0  0  0  0  0  0  0  0  0  0
   -1.1959    4.4870   25.8489 H   0  0  0  0  0  0  0  0  0  0  0  0
   -3.0872    3.0258   25.5476 H   0  0  0  0  0  0  0  0  0  0  0  0
   -1.5527    2.2879   25.0822 H   0  0  0  0  0  0  0  0  0  0  0  0
   -2.9032    0.7136   26.4383 H   0  0  0  0  0  0  0  0  0  0  0  0
   -3.0694    1.9357   27.7066 H   0  0  0  0  0  0  0  0  0  0  0  0
  1  2  1  0
  2  3  1  0
  3  4  2  0
  3  5  2  0
  3  6  1  0
  6  7  1  0
  7  8  1  0
  8  9  1  0
  9 10  1  0
 10 11  1  0
 11 12  1  0
 12 13  1  0
 13  8  1  0
  1 14  1  0
  1 15  1  0
  1 16  1  0
  2 17  1  0
  6 18  1  0
  6 19  1  0
  7 20  1  0
  7 21  1  0
  9 22  1  0
  9 23  1  0
 10 24  1  0
 10 25  1  0
 11 26  1  0
 12 27  1  0
 12 28  1  0
 13 29  1  0
 13 30  1  0
M  END
>  <Energy>  (189) 
1.2568675778194711

>  <compound_id>  (189) 
46310

>  <target_id>  (189) 
1

>  <reference_id>  (189) 
70

>  <inspiration_ids>  (189) 
[13, 70]

>  <energy_score>  (189) 
-56.3872621830582

>  <distance_score>  (189) 
1.9626292481175363

>  <path>  (189) 
/opt/xchem-fragalysis-2/maxwin/BulkDock/SCRATCH/511023/C46310-P70/C46310-P70.minimised.mol

>  <scratch_subdir>  (189) 
/opt/xchem-fragalysis-2/maxwin/BulkDock/SCRATCH/511023/C46310-P70

>  <fragmenstein_runtime>  (189) 
10.532816171646118

>  <fragmenstein_outcome>  (189) 
too moved

>  <fragmenstein_mode>  (189) 
expansion

>  <fragmenstein_error>  (189) 


$$$$
C46312-P13
     RDKit          3D

 29 30  0  0  0  0  0  0  0  0999 V2000
   -2.2887   -0.7033   31.9401 C   0  0  0  0  0  0  0  0  0  0  0  0
   -1.0119   -1.4781   32.1766 C   0  0  0  0  0  0  0  0  0  0  0  0
   -0.9024   -2.9756   31.2132 S   0  0  0  0  0  0  0  0  0  0  0  0
    0.4286   -3.5200   31.3585 O   0  0  0  0  0  0  0  0  0  0  0  0
   -2.0655   -3.7740   31.5427 O   0  0  0  0  0  0  0  0  0  0  0  0
   -1.1096   -2.4842   29.6440 N   0  0  0  0  0  0  0  0  0  0  0  0
   -0.0303   -1.8536   28.8809 C   0  0  0  0  0  0  0  0  0  0  0  0
   -0.2915   -0.3763   28.7782 C   0  0  0  0  0  0  0  0  0  0  0  0
   -1.5424    0.0473   28.0575 C   0  0  0  0  0  0  0  0  0  0  0  0
   -1.1011    1.0444   27.0743 N   0  0  0  0  0  0  0  0  0  0  0  0
    0.1435    1.6619   27.5270 C   0  0  0  0  0  0  0  0  0  0  0  0
    0.7604    0.6076   28.3832 C   0  0  0  0  0  0  0  0  0  0  0  0
    0.3640    0.5228   29.8213 C   0  0  0  0  0  0  0  0  0  0  0  0
   -3.1684   -1.3153   32.1635 H   0  0  0  0  0  0  0  0  0  0  0  0
   -2.3153    0.1724   32.5941 H   0  0  0  0  0  0  0  0  0  0  0  0
   -2.3762   -0.3652   30.9071 H   0  0  0  0  0  0  0  0  0  0  0  0
   -0.9662   -1.7950   33.2247 H   0  0  0  0  0  0  0  0  0  0  0  0
   -0.1237   -0.8782   31.9873 H   0  0  0  0  0  0  0  0  0  0  0  0
   -1.8236   -2.9707   29.0895 H   0  0  0  0  0  0  0  0  0  0  0  0
    0.9454   -2.0490   29.3375 H   0  0  0  0  0  0  0  0  0  0  0  0
   -0.0003   -2.3025   27.8860 H   0  0  0  0  0  0  0  0  0  0  0  0
   -2.0471   -0.7779   27.5465 H   0  0  0  0  0  0  0  0  0  0  0  0
   -2.2385    0.5057   28.7647 H   0  0  0  0  0  0  0  0  0  0  0  0
   -1.8280    1.7459   26.9383 H   0  0  0  0  0  0  0  0  0  0  0  0
    0.7796    1.9284   26.6800 H   0  0  0  0  0  0  0  0  0  0  0  0
   -0.0610    2.5699   28.1054 H   0  0  0  0  0  0  0  0  0  0  0  0
    1.7227    0.2538   28.0460 H   0  0  0  0  0  0  0  0  0  0  0  0
   -0.2142    1.3308   30.2491 H   0  0  0  0  0  0  0  0  0  0  0  0
    1.1199    0.1218   30.4869 H   0  0  0  0  0  0  0  0  0  0  0  0
  1  2  1  0
  2  3  1  0
  3  4  2  0
  3  5  2  0
  3  6  1  0
  6  7  1  0
  7  8  1  0
  8  9  1  0
  9 10  1  0
 10 11  1  0
 11 12  1  0
 12 13  1  0
 12  8  1  0
 13  8  1  0
  1 14  1  0
  1 15  1  0
  1 16  1  0
  2 17  1  0
  2 18  1  0
  6 19  1  0
  7 20  1  0
  7 21  1  0
  9 22  1  0
  9 23  1  0
 10 24  1  0
 11 25  1  0
 11 26  1  0
 12 27  1  0
 13 28  1  0
 13 29  1  0
M  END
>  <Energy>  (190) 
-59.995883745012755

>  <compound_id>  (190) 
46312

>  <target_id>  (190) 
1

>  <reference_id>  (190) 
13

>  <inspiration_ids>  (190) 
[13, 70]

>  <energy_score>  (190) 
-27.94958709898657

>  <distance_score>  (190) 
1.2356542542800468

>  <path>  (190) 
/opt/xchem-fragalysis-2/maxwin/BulkDock/SCRATCH/511023/C46312-P13/C46312-P13.minimised.mol

>  <scratch_subdir>  (190) 
/opt/xchem-fragalysis-2/maxwin/BulkDock/SCRATCH/511023/C46312-P13

>  <fragmenstein_runtime>  (190) 
2.153801679611206

>  <fragmenstein_outcome>  (190) 
too moved

>  <fragmenstein_mode>  (190) 
expansion

>  <fragmenstein_error>  (190) 


$$$$
C46312-P70
     RDKit          3D

 29 30  0  0  0  0  0  0  0  0999 V2000
   -2.2180   -0.6435   31.9248 C   0  0  0  0  0  0  0  0  0  0  0  0
   -0.9743   -1.4824   32.1226 C   0  0  0  0  0  0  0  0  0  0  0  0
   -0.9636   -2.9857   31.1553 S   0  0  0  0  0  0  0  0  0  0  0  0
    0.3219   -3.6305   31.3074 O   0  0  0  0  0  0  0  0  0  0  0  0
   -2.1861   -3.7060   31.4502 O   0  0  0  0  0  0  0  0  0  0  0  0
   -1.1162   -2.4815   29.5840 N   0  0  0  0  0  0  0  0  0  0  0  0
   -0.0117   -1.8541   28.8541 C   0  0  0  0  0  0  0  0  0  0  0  0
   -0.2724   -0.3748   28.7504 C   0  0  0  0  0  0  0  0  0  0  0  0
   -1.5519    0.0587   28.0948 C   0  0  0  0  0  0  0  0  0  0  0  0
   -1.1590    1.0244   27.0616 N   0  0  0  0  0  0  0  0  0  0  0  0
    0.1325    1.6197   27.4258 C   0  0  0  0  0  0  0  0  0  0  0  0
    0.7707    0.5874   28.2933 C   0  0  0  0  0  0  0  0  0  0  0  0
    0.4261    0.5394   29.7496 C   0  0  0  0  0  0  0  0  0  0  0  0
   -3.1150   -1.1995   32.2155 H   0  0  0  0  0  0  0  0  0  0  0  0
   -2.1657    0.2571   32.5438 H   0  0  0  0  0  0  0  0  0  0  0  0
   -2.3433   -0.3361   30.8871 H   0  0  0  0  0  0  0  0  0  0  0  0
   -0.9109   -1.8009   33.1691 H   0  0  0  0  0  0  0  0  0  0  0  0
   -0.0631   -0.9285   31.9011 H   0  0  0  0  0  0  0  0  0  0  0  0
   -1.8099   -2.9704   29.0103 H   0  0  0  0  0  0  0  0  0  0  0  0
    0.9479   -2.0525   29.3427 H   0  0  0  0  0  0  0  0  0  0  0  0
    0.0474   -2.2994   27.8568 H   0  0  0  0  0  0  0  0  0  0  0  0
   -2.1075   -0.7651   27.6382 H   0  0  0  0  0  0  0  0  0  0  0  0
   -2.1904    0.5524   28.8316 H   0  0  0  0  0  0  0  0  0  0  0  0
   -1.8663    1.7567   26.9895 H   0  0  0  0  0  0  0  0  0  0  0  0
    0.7250    1.8313   26.5322 H   0  0  0  0  0  0  0  0  0  0  0  0
   -0.0145    2.5566   27.9747 H   0  0  0  0  0  0  0  0  0  0  0  0
    1.7200    0.2184   27.9338 H   0  0  0  0  0  0  0  0  0  0  0  0
   -0.1305    1.3639   30.1780 H   0  0  0  0  0  0  0  0  0  0  0  0
    1.1981    0.1446   30.4003 H   0  0  0  0  0  0  0  0  0  0  0  0
  1  2  1  0
  2  3  1  0
  3  4  2  0
  3  5  2  0
  3  6  1  0
  6  7  1  0
  7  8  1  0
  8  9  1  0
  9 10  1  0
 10 11  1  0
 11 12  1  0
 12 13  1  0
 12  8  1  0
 13  8  1  0
  1 14  1  0
  1 15  1  0
  1 16  1  0
  2 17  1  0
  2 18  1  0
  6 19  1  0
  7 20  1  0
  7 21  1  0
  9 22  1  0
  9 23  1  0
 10 24  1  0
 11 25  1  0
 11 26  1  0
 12 27  1  0
 13 28  1  0
 13 29  1  0
M  END
>  <Energy>  (191) 
-60.030904984950993

>  <compound_id>  (191) 
46312

>  <target_id>  (191) 
1

>  <reference_id>  (191) 
70

>  <inspiration_ids>  (191) 
[13, 70]

>  <energy_score>  (191) 
-27.984608338925455

>  <distance_score>  (191) 
1.2461737163022455

>  <path>  (191) 
/opt/xchem-fragalysis-2/maxwin/BulkDock/SCRATCH/511023/C46312-P70/C46312-P70.minimised.mol

>  <scratch_subdir>  (191) 
/opt/xchem-fragalysis-2/maxwin/BulkDock/SCRATCH/511023/C46312-P70

>  <fragmenstein_runtime>  (191) 
3.1085712909698486

>  <fragmenstein_outcome>  (191) 
too moved

>  <fragmenstein_mode>  (191) 
expansion

>  <fragmenstein_error>  (191) 


$$$$
C39166-P13
     RDKit          3D

 28 28  0  0  0  0  0  0  0  0999 V2000
   -1.6828    3.2884   23.6003 C   0  0  0  0  0  0  0  0  0  0  0  0
   -0.7502    3.6083   24.7399 C   0  0  0  0  0  0  0  0  0  0  0  0
   -1.4750    3.4820   26.3640 S   0  0  0  0  0  0  0  0  0  0  0  0
   -2.9027    3.6382   26.2409 O   0  0  0  0  0  0  0  0  0  0  0  0
   -0.6681    4.3127   27.2295 O   0  0  0  0  0  0  0  0  0  0  0  0
   -1.1962    1.8397   26.8020 N   0  0  0  0  0  0  0  0  0  0  0  0
   -2.4373    1.0620   26.6825 C   0  0  0  0  0  0  0  0  0  0  0  0
   -0.4666    1.6567   28.1182 C   0  0  0  0  0  0  0  0  0  0  0  0
   -0.7501    0.3599   28.8726 C   0  0  0  0  0  0  0  0  0  0  0  0
    0.1451   -0.6439   28.1965 C   0  0  0  0  0  0  0  0  0  0  0  0
    1.3636    0.1038   27.8736 N   0  0  0  0  0  0  0  0  0  0  0  0
    1.0314    1.5372   27.8465 C   0  0  0  0  0  0  0  0  0  0  0  0
   -2.5153    3.9983   23.5605 H   0  0  0  0  0  0  0  0  0  0  0  0
   -1.1511    3.3385   22.6457 H   0  0  0  0  0  0  0  0  0  0  0  0
   -2.1036    2.2944   23.7079 H   0  0  0  0  0  0  0  0  0  0  0  0
    0.1466    2.9844   24.7266 H   0  0  0  0  0  0  0  0  0  0  0  0
   -0.4130    4.6464   24.6400 H   0  0  0  0  0  0  0  0  0  0  0  0
   -2.2439   -0.0111   26.7256 H   0  0  0  0  0  0  0  0  0  0  0  0
   -2.9081    1.2272   25.7123 H   0  0  0  0  0  0  0  0  0  0  0  0
   -3.1348    1.3519   27.4660 H   0  0  0  0  0  0  0  0  0  0  0  0
   -0.6881    2.4959   28.7825 H   0  0  0  0  0  0  0  0  0  0  0  0
   -1.7968    0.0499   28.9045 H   0  0  0  0  0  0  0  0  0  0  0  0
   -0.4309    0.4802   29.9174 H   0  0  0  0  0  0  0  0  0  0  0  0
   -0.3227   -1.0224   27.2889 H   0  0  0  0  0  0  0  0  0  0  0  0
    0.3689   -1.4975   28.8426 H   0  0  0  0  0  0  0  0  0  0  0  0
    1.7007   -0.1951   26.9595 H   0  0  0  0  0  0  0  0  0  0  0  0
    1.3384    1.9965   26.9014 H   0  0  0  0  0  0  0  0  0  0  0  0
    1.5951    2.0263   28.6490 H   0  0  0  0  0  0  0  0  0  0  0  0
  1  2  1  0
  2  3  1  0
  3  4  2  0
  3  5  2  0
  3  6  1  0
  6  7  1  0
  6  8  1  0
  8  9  1  0
  9 10  1  0
 10 11  1  0
 11 12  1  0
 12  8  1  0
  1 13  1  0
  1 14  1  0
  1 15  1  0
  2 16  1  0
  2 17  1  0
  7 18  1  0
  7 19  1  0
  7 20  1  0
  8 21  1  0
  9 22  1  0
  9 23  1  0
 10 24  1  0
 10 25  1  0
 11 26  1  0
 12 27  1  0
 12 28  1  0
M  END
>  <Energy>  (192) 
-21.107523295582919

>  <compound_id>  (192) 
39166

>  <target_id>  (192) 
1

>  <reference_id>  (192) 
13

>  <inspiration_ids>  (192) 
[13, 70]

>  <energy_score>  (192) 
-29.637226783344957

>  <distance_score>  (192) 
2.18868878143857

>  <path>  (192) 
/opt/xchem-fragalysis-2/maxwin/BulkDock/SCRATCH/511023/C39166-P13/C39166-P13.minimised.mol

>  <scratch_subdir>  (192) 
/opt/xchem-fragalysis-2/maxwin/BulkDock/SCRATCH/511023/C39166-P13

>  <fragmenstein_runtime>  (192) 
6.683967590332031

>  <fragmenstein_outcome>  (192) 
too moved

>  <fragmenstein_mode>  (192) 
expansion

>  <fragmenstein_error>  (192) 


$$$$
C39166-P70
     RDKit          3D

 28 28  0  0  0  0  0  0  0  0999 V2000
   -0.4296    3.9801   23.4068 C   0  0  0  0  0  0  0  0  0  0  0  0
   -0.1121    3.9656   24.8955 C   0  0  0  0  0  0  0  0  0  0  0  0
   -1.4592    3.2211   25.7747 S   0  0  0  0  0  0  0  0  0  0  0  0
   -1.7285    1.9202   25.2022 O   0  0  0  0  0  0  0  0  0  0  0  0
   -2.5067    4.2137   25.8065 O   0  0  0  0  0  0  0  0  0  0  0  0
   -1.0265    2.9547   27.3727 N   0  0  0  0  0  0  0  0  0  0  0  0
   -2.2533    2.7143   28.1241 C   0  0  0  0  0  0  0  0  0  0  0  0
    0.2579    2.3751   27.9047 C   0  0  0  0  0  0  0  0  0  0  0  0
    0.1858    1.5551   29.2015 C   0  0  0  0  0  0  0  0  0  0  0  0
   -0.2122    0.1441   28.7779 C   0  0  0  0  0  0  0  0  0  0  0  0
   -0.0423    0.1399   27.3305 N   0  0  0  0  0  0  0  0  0  0  0  0
    0.8215    1.2902   27.0356 C   0  0  0  0  0  0  0  0  0  0  0  0
   -0.5814    2.9695   23.0170 H   0  0  0  0  0  0  0  0  0  0  0  0
   -1.3386    4.5555   23.2030 H   0  0  0  0  0  0  0  0  0  0  0  0
    0.3938    4.4381   22.8503 H   0  0  0  0  0  0  0  0  0  0  0  0
    0.8041    3.4030   25.0664 H   0  0  0  0  0  0  0  0  0  0  0  0
    0.0190    4.9817   25.2781 H   0  0  0  0  0  0  0  0  0  0  0  0
   -2.2082    1.8754   28.8086 H   0  0  0  0  0  0  0  0  0  0  0  0
   -3.1052    2.4621   27.4814 H   0  0  0  0  0  0  0  0  0  0  0  0
   -2.4735    3.6538   28.6249 H   0  0  0  0  0  0  0  0  0  0  0  0
    0.9610    3.2072   28.0203 H   0  0  0  0  0  0  0  0  0  0  0  0
   -0.4381    1.9651   29.9871 H   0  0  0  0  0  0  0  0  0  0  0  0
    1.1965    1.5092   29.6338 H   0  0  0  0  0  0  0  0  0  0  0  0
   -1.2440   -0.0997   29.0486 H   0  0  0  0  0  0  0  0  0  0  0  0
    0.4388   -0.6001   29.2484 H   0  0  0  0  0  0  0  0  0  0  0  0
   -0.9522    0.3087   26.8885 H   0  0  0  0  0  0  0  0  0  0  0  0
    0.8138    1.5921   25.9979 H   0  0  0  0  0  0  0  0  0  0  0  0
    1.8609    1.0517   27.2960 H   0  0  0  0  0  0  0  0  0  0  0  0
  1  2  1  0
  2  3  1  0
  3  4  2  0
  3  5  2  0
  3  6  1  0
  6  7  1  0
  6  8  1  0
  8  9  1  0
  9 10  1  0
 10 11  1  0
 11 12  1  0
 12  8  1  0
  1 13  1  0
  1 14  1  0
  1 15  1  0
  2 16  1  0
  2 17  1  0
  7 18  1  0
  7 19  1  0
  7 20  1  0
  8 21  1  0
  9 22  1  0
  9 23  1  0
 10 24  1  0
 10 25  1  0
 11 26  1  0
 12 27  1  0
 12 28  1  0
M  END
>  <Energy>  (193) 
-10.702527829927863

>  <compound_id>  (193) 
39166

>  <target_id>  (193) 
1

>  <reference_id>  (193) 
70

>  <inspiration_ids>  (193) 
[13, 70]

>  <energy_score>  (193) 
-19.232231317690122

>  <distance_score>  (193) 
2.196471686941696

>  <path>  (193) 
/opt/xchem-fragalysis-2/maxwin/BulkDock/SCRATCH/511023/C39166-P70/C39166-P70.minimised.mol

>  <scratch_subdir>  (193) 
/opt/xchem-fragalysis-2/maxwin/BulkDock/SCRATCH/511023/C39166-P70

>  <fragmenstein_runtime>  (193) 
7.134310960769653

>  <fragmenstein_outcome>  (193) 
too moved

>  <fragmenstein_mode>  (193) 
expansion

>  <fragmenstein_error>  (193) 


$$$$
C46313-P13
     RDKit          3D

 25 25  0  0  0  0  0  0  0  0999 V2000
   -1.4995   -0.1003   32.0567 C   0  0  0  0  0  0  0  0  0  0  0  0
   -0.5951   -1.3074   32.1266 C   0  0  0  0  0  0  0  0  0  0  0  0
   -0.7450   -2.3553   30.6978 S   0  0  0  0  0  0  0  0  0  0  0  0
    0.1386   -3.4830   30.9208 O   0  0  0  0  0  0  0  0  0  0  0  0
   -2.1589   -2.5594   30.4858 O   0  0  0  0  0  0  0  0  0  0  0  0
   -0.0572   -1.3295   29.5032 N   0  0  0  0  0  0  0  0  0  0  0  0
    1.3560   -1.6569   29.2113 C   0  0  0  0  0  0  0  0  0  0  0  0
   -0.7079   -0.7658   28.2487 C   0  0  0  0  0  0  0  0  0  0  0  0
   -0.3901    0.7204   27.8563 C   0  0  0  0  0  0  0  0  0  0  0  0
   -1.7682    0.8400   27.3479 N   0  0  0  0  0  0  0  0  0  0  0  0
   -2.1431   -0.2610   28.2688 C   0  0  0  0  0  0  0  0  0  0  0  0
   -2.5475   -0.3846   31.9241 H   0  0  0  0  0  0  0  0  0  0  0  0
   -1.2084    0.5464   31.2260 H   0  0  0  0  0  0  0  0  0  0  0  0
   -1.4202    0.4800   32.9810 H   0  0  0  0  0  0  0  0  0  0  0  0
   -0.8622   -1.9235   32.9918 H   0  0  0  0  0  0  0  0  0  0  0  0
    0.4551   -1.0189   32.2303 H   0  0  0  0  0  0  0  0  0  0  0  0
    1.8260   -0.8518   28.6372 H   0  0  0  0  0  0  0  0  0  0  0  0
    1.4259   -2.5819   28.6308 H   0  0  0  0  0  0  0  0  0  0  0  0
    1.9334   -1.7530   30.1359 H   0  0  0  0  0  0  0  0  0  0  0  0
   -0.5513   -1.4668   27.4236 H   0  0  0  0  0  0  0  0  0  0  0  0
    0.3925    0.8540   27.1063 H   0  0  0  0  0  0  0  0  0  0  0  0
   -0.1762    1.3760   28.7094 H   0  0  0  0  0  0  0  0  0  0  0  0
   -2.2434    1.7235   27.5401 H   0  0  0  0  0  0  0  0  0  0  0  0
   -2.8420   -0.9875   27.8562 H   0  0  0  0  0  0  0  0  0  0  0  0
   -2.4737    0.0798   29.2541 H   0  0  0  0  0  0  0  0  0  0  0  0
  1  2  1  0
  2  3  1  0
  3  4  2  0
  3  5  2  0
  3  6  1  0
  6  7  1  0
  6  8  1  0
  8  9  1  0
  9 10  1  0
 10 11  1  0
 11  8  1  0
  1 12  1  0
  1 13  1  0
  1 14  1  0
  2 15  1  0
  2 16  1  0
  7 17  1  0
  7 18  1  0
  7 19  1  0
  8 20  1  0
  9 21  1  0
  9 22  1  0
 10 23  1  0
 11 24  1  0
 11 25  1  0
M  END
>  <Energy>  (194) 
-19.588329410100819

>  <compound_id>  (194) 
46313

>  <target_id>  (194) 
1

>  <reference_id>  (194) 
13

>  <inspiration_ids>  (194) 
[13, 70]

>  <energy_score>  (194) 
-46.7167359406136

>  <distance_score>  (194) 
2.1146218487124933

>  <path>  (194) 
/opt/xchem-fragalysis-2/maxwin/BulkDock/SCRATCH/511023/C46313-P13/C46313-P13.minimised.mol

>  <scratch_subdir>  (194) 
/opt/xchem-fragalysis-2/maxwin/BulkDock/SCRATCH/511023/C46313-P13

>  <fragmenstein_runtime>  (194) 
2.349780797958374

>  <fragmenstein_outcome>  (194) 
too moved

>  <fragmenstein_mode>  (194) 
expansion

>  <fragmenstein_error>  (194) 


$$$$
C46313-P70
     RDKit          3D

 25 25  0  0  0  0  0  0  0  0999 V2000
   -2.2694   -0.5421   32.3412 C   0  0  0  0  0  0  0  0  0  0  0  0
   -0.8485   -0.9235   31.9927 C   0  0  0  0  0  0  0  0  0  0  0  0
   -0.7550   -2.3051   30.8636 S   0  0  0  0  0  0  0  0  0  0  0  0
    0.4102   -3.0809   31.2451 O   0  0  0  0  0  0  0  0  0  0  0  0
   -2.0487   -2.9518   30.7799 O   0  0  0  0  0  0  0  0  0  0  0  0
   -0.4021   -1.5187   29.3609 N   0  0  0  0  0  0  0  0  0  0  0  0
    0.2341   -2.4563   28.3997 C   0  0  0  0  0  0  0  0  0  0  0  0
   -1.3731   -0.5862   28.6237 C   0  0  0  0  0  0  0  0  0  0  0  0
   -0.9179    0.2472   27.3861 C   0  0  0  0  0  0  0  0  0  0  0  0
   -1.7488    1.3619   27.8547 N   0  0  0  0  0  0  0  0  0  0  0  0
   -1.6034    0.8186   29.2134 C   0  0  0  0  0  0  0  0  0  0  0  0
   -2.8895   -0.3925   31.4581 H   0  0  0  0  0  0  0  0  0  0  0  0
   -2.2818    0.3734   32.9398 H   0  0  0  0  0  0  0  0  0  0  0  0
   -2.7432   -1.3322   32.9343 H   0  0  0  0  0  0  0  0  0  0  0  0
   -0.3239   -1.2301   32.9045 H   0  0  0  0  0  0  0  0  0  0  0  0
   -0.2838   -0.0893   31.5716 H   0  0  0  0  0  0  0  0  0  0  0  0
    0.6691   -1.9036   27.5644 H   0  0  0  0  0  0  0  0  0  0  0  0
   -0.5009   -3.1723   28.0256 H   0  0  0  0  0  0  0  0  0  0  0  0
    1.0651   -2.9971   28.8608 H   0  0  0  0  0  0  0  0  0  0  0  0
   -2.3007   -1.1303   28.4095 H   0  0  0  0  0  0  0  0  0  0  0  0
   -1.2743   -0.1428   26.4439 H   0  0  0  0  0  0  0  0  0  0  0  0
    0.1521    0.4743   27.3406 H   0  0  0  0  0  0  0  0  0  0  0  0
   -1.3706    2.2993   27.7180 H   0  0  0  0  0  0  0  0  0  0  0  0
   -2.4966    0.8928   29.8221 H   0  0  0  0  0  0  0  0  0  0  0  0
   -0.7439    1.2282   29.7556 H   0  0  0  0  0  0  0  0  0  0  0  0
  1  2  1  0
  2  3  1  0
  3  4  2  0
  3  5  2  0
  3  6  1  0
  6  7  1  0
  6  8  1  0
  8  9  1  0
  9 10  1  0
 10 11  1  0
 11  8  1  0
  1 12  1  0
  1 13  1  0
  1 14  1  0
  2 15  1  0
  2 16  1  0
  7 17  1  0
  7 18  1  0
  7 19  1  0
  8 20  1  0
  9 21  1  0
  9 22  1  0
 10 23  1  0
 11 24  1  0
 11 25  1  0
M  END
>  <Energy>  (195) 
-14.992020556734536

>  <compound_id>  (195) 
46313

>  <target_id>  (195) 
1

>  <reference_id>  (195) 
70

>  <inspiration_ids>  (195) 
[13, 70]

>  <energy_score>  (195) 
-42.120427087247464

>  <distance_score>  (195) 
1.9594877584833816

>  <path>  (195) 
/opt/xchem-fragalysis-2/maxwin/BulkDock/SCRATCH/511023/C46313-P70/C46313-P70.minimised.mol

>  <scratch_subdir>  (195) 
/opt/xchem-fragalysis-2/maxwin/BulkDock/SCRATCH/511023/C46313-P70

>  <fragmenstein_runtime>  (195) 
2.515068531036377

>  <fragmenstein_outcome>  (195) 
too moved

>  <fragmenstein_mode>  (195) 
expansion

>  <fragmenstein_error>  (195) 


$$$$
C46318-P13
     RDKit          3D

 38 39  0  0  0  0  0  0  0  0999 V2000
    0.1672   -2.3386   31.8353 O   0  0  0  0  0  0  0  0  0  0  0  0
   -0.9232   -2.2136   30.8947 S   0  0  0  0  0  0  0  0  0  0  0  0
   -2.1433   -2.9732   31.0823 O   0  0  0  0  0  0  0  0  0  0  0  0
   -1.3695   -0.4733   30.7063 C   0  0  0  0  0  0  0  0  0  0  0  0
   -2.1721   -0.2519   29.4188 C   0  0  0  0  0  0  0  0  0  0  0  0
   -1.8366    0.6746   28.3257 N   0  0  0  0  0  0  0  0  0  0  0  0
   -2.2322    0.5721   26.9999 C   0  0  0  0  0  0  0  0  0  0  0  0
   -2.2171    1.8382   26.4608 C   0  0  0  0  0  0  0  0  0  0  0  0
   -1.6969    2.6270   27.4910 C   0  0  0  0  0  0  0  0  0  0  0  0
   -1.3711    1.9054   28.5711 N   0  0  0  0  0  0  0  0  0  0  0  0
   -0.3415   -2.6171   29.3866 N   0  0  0  0  0  0  0  0  0  0  0  0
    1.0631   -2.3464   29.0457 C   0  0  0  0  0  0  0  0  0  0  0  0
    1.3194   -0.8435   28.8981 C   0  0  0  0  0  0  0  0  0  0  0  0
    1.2251   -0.3707   27.4680 C   0  0  0  0  0  0  0  0  0  0  0  0
    1.5122    1.1204   27.3159 C   0  0  0  0  0  0  0  0  0  0  0  0
    1.8580    1.7946   28.6302 C   0  0  0  0  0  0  0  0  0  0  0  0
    2.9255    1.0456   29.2903 N   0  0  0  0  0  0  0  0  0  0  0  0
    2.6408   -0.3790   29.5017 C   0  0  0  0  0  0  0  0  0  0  0  0
   -2.0234   -0.2910   31.5704 H   0  0  0  0  0  0  0  0  0  0  0  0
   -0.5156    0.1859   30.8525 H   0  0  0  0  0  0  0  0  0  0  0  0
   -2.4183   -1.1935   28.9217 H   0  0  0  0  0  0  0  0  0  0  0  0
   -3.0904    0.1689   29.8124 H   0  0  0  0  0  0  0  0  0  0  0  0
   -2.5287   -0.3833   26.5915 H   0  0  0  0  0  0  0  0  0  0  0  0
   -2.5424    2.1466   25.4782 H   0  0  0  0  0  0  0  0  0  0  0  0
   -1.5170    3.6950   27.5008 H   0  0  0  0  0  0  0  0  0  0  0  0
   -0.8766   -3.2966   28.8373 H   0  0  0  0  0  0  0  0  0  0  0  0
    1.7042   -2.7901   29.8157 H   0  0  0  0  0  0  0  0  0  0  0  0
    1.3002   -2.8794   28.1191 H   0  0  0  0  0  0  0  0  0  0  0  0
    0.5611   -0.3002   29.4270 H   0  0  0  0  0  0  0  0  0  0  0  0
    1.9877   -0.9043   26.8974 H   0  0  0  0  0  0  0  0  0  0  0  0
    0.2436   -0.6154   27.0679 H   0  0  0  0  0  0  0  0  0  0  0  0
    2.3673    1.2376   26.6353 H   0  0  0  0  0  0  0  0  0  0  0  0
    0.6903    1.6363   26.8211 H   0  0  0  0  0  0  0  0  0  0  0  0
    2.2094    2.8132   28.4321 H   0  0  0  0  0  0  0  0  0  0  0  0
    1.0041    1.8856   29.3044 H   0  0  0  0  0  0  0  0  0  0  0  0
    3.1675    1.4939   30.1729 H   0  0  0  0  0  0  0  0  0  0  0  0
    2.6332   -0.5787   30.5802 H   0  0  0  0  0  0  0  0  0  0  0  0
    3.4731   -0.9567   29.0827 H   0  0  0  0  0  0  0  0  0  0  0  0
  1  2  2  0
  2  3  2  0
  2  4  1  0
  4  5  1  0
  5  6  1  0
  6  7  1  0
  7  8  2  0
  8  9  1  0
  9 10  2  0
  2 11  1  0
 11 12  1  0
 12 13  1  0
 13 14  1  0
 14 15  1  0
 15 16  1  0
 16 17  1  0
 17 18  1  0
 10  6  1  0
 18 13  1  0
  4 19  1  0
  4 20  1  0
  5 21  1  0
  5 22  1  0
  7 23  1  0
  8 24  1  0
  9 25  1  0
 11 26  1  0
 12 27  1  0
 12 28  1  0
 13 29  1  0
 14 30  1  0
 14 31  1  0
 15 32  1  0
 15 33  1  0
 16 34  1  0
 16 35  1  0
 17 36  1  0
 18 37  1  0
 18 38  1  0
M  END
>  <Energy>  (196) 
-64.261841352150228

>  <compound_id>  (196) 
46318

>  <target_id>  (196) 
1

>  <reference_id>  (196) 
13

>  <inspiration_ids>  (196) 
[13, 70]

>  <energy_score>  (196) 
-20.333601827964657

>  <distance_score>  (196) 
2.440501902331055

>  <path>  (196) 
/opt/xchem-fragalysis-2/maxwin/BulkDock/SCRATCH/511023/C46318-P13/C46318-P13.minimised.mol

>  <scratch_subdir>  (196) 
/opt/xchem-fragalysis-2/maxwin/BulkDock/SCRATCH/511023/C46318-P13

>  <fragmenstein_runtime>  (196) 
2.899988889694214

>  <fragmenstein_outcome>  (196) 
too moved

>  <fragmenstein_mode>  (196) 
expansion

>  <fragmenstein_error>  (196) 


$$$$
C46318-P70
     RDKit          3D

 38 39  0  0  0  0  0  0  0  0999 V2000
    0.0938   -2.3693   31.8515 O   0  0  0  0  0  0  0  0  0  0  0  0
   -0.9805   -2.1339   30.9131 S   0  0  0  0  0  0  0  0  0  0  0  0
   -2.2700   -2.7683   31.1085 O   0  0  0  0  0  0  0  0  0  0  0  0
   -1.2440   -0.3403   30.6989 C   0  0  0  0  0  0  0  0  0  0  0  0
   -2.0618   -0.0494   29.4386 C   0  0  0  0  0  0  0  0  0  0  0  0
   -1.7505    0.9632   28.4182 N   0  0  0  0  0  0  0  0  0  0  0  0
   -2.2343    1.0057   27.1160 C   0  0  0  0  0  0  0  0  0  0  0  0
   -2.0481    2.2827   26.6435 C   0  0  0  0  0  0  0  0  0  0  0  0
   -1.3655    2.9188   27.6873 C   0  0  0  0  0  0  0  0  0  0  0  0
   -1.1121    2.0985   28.7166 N   0  0  0  0  0  0  0  0  0  0  0  0
   -0.4579   -2.6544   29.4099 N   0  0  0  0  0  0  0  0  0  0  0  0
    0.9819   -2.5832   29.0821 C   0  0  0  0  0  0  0  0  0  0  0  0
    1.3980   -1.1284   28.9058 C   0  0  0  0  0  0  0  0  0  0  0  0
    1.0205   -0.6045   27.5365 C   0  0  0  0  0  0  0  0  0  0  0  0
    1.5349    0.8175   27.3089 C   0  0  0  0  0  0  0  0  0  0  0  0
    2.0642    1.4588   28.5741 C   0  0  0  0  0  0  0  0  0  0  0  0
    3.1269    0.6338   29.1629 N   0  0  0  0  0  0  0  0  0  0  0  0
    2.8682   -0.8192   29.1414 C   0  0  0  0  0  0  0  0  0  0  0  0
   -1.8366   -0.0664   31.5826 H   0  0  0  0  0  0  0  0  0  0  0  0
   -0.3215    0.2264   30.7926 H   0  0  0  0  0  0  0  0  0  0  0  0
   -2.2564   -0.9571   28.8628 H   0  0  0  0  0  0  0  0  0  0  0  0
   -2.9988    0.3117   29.8532 H   0  0  0  0  0  0  0  0  0  0  0  0
   -2.7087    0.1409   26.6846 H   0  0  0  0  0  0  0  0  0  0  0  0
   -2.3745    2.7028   25.7033 H   0  0  0  0  0  0  0  0  0  0  0  0
   -1.0264    3.9461   27.7442 H   0  0  0  0  0  0  0  0  0  0  0  0
   -0.9900   -3.4348   29.0166 H   0  0  0  0  0  0  0  0  0  0  0  0
    1.5582   -3.0803   29.8697 H   0  0  0  0  0  0  0  0  0  0  0  0
    1.1581   -3.1593   28.1666 H   0  0  0  0  0  0  0  0  0  0  0  0
    0.8887   -0.5470   29.6528 H   0  0  0  0  0  0  0  0  0  0  0  0
    1.5017   -1.2568   26.8029 H   0  0  0  0  0  0  0  0  0  0  0  0
   -0.0528   -0.6758   27.3699 H   0  0  0  0  0  0  0  0  0  0  0  0
    2.3750    0.7800   26.6015 H   0  0  0  0  0  0  0  0  0  0  0  0
    0.7819    1.4423   26.8285 H   0  0  0  0  0  0  0  0  0  0  0  0
    2.4707    2.4513   28.3497 H   0  0  0  0  0  0  0  0  0  0  0  0
    1.2834    1.6127   29.3220 H   0  0  0  0  0  0  0  0  0  0  0  0
    4.0031    0.8158   28.6727 H   0  0  0  0  0  0  0  0  0  0  0  0
    3.2004   -1.2350   30.0990 H   0  0  0  0  0  0  0  0  0  0  0  0
    3.4826   -1.2864   28.3615 H   0  0  0  0  0  0  0  0  0  0  0  0
  1  2  2  0
  2  3  2  0
  2  4  1  0
  4  5  1  0
  5  6  1  0
  6  7  1  0
  7  8  2  0
  8  9  1  0
  9 10  2  0
  2 11  1  0
 11 12  1  0
 12 13  1  0
 13 14  1  0
 14 15  1  0
 15 16  1  0
 16 17  1  0
 17 18  1  0
 10  6  1  0
 18 13  1  0
  4 19  1  0
  4 20  1  0
  5 21  1  0
  5 22  1  0
  7 23  1  0
  8 24  1  0
  9 25  1  0
 11 26  1  0
 12 27  1  0
 12 28  1  0
 13 29  1  0
 14 30  1  0
 14 31  1  0
 15 32  1  0
 15 33  1  0
 16 34  1  0
 16 35  1  0
 17 36  1  0
 18 37  1  0
 18 38  1  0
M  END
>  <Energy>  (197) 
-65.724906871978433

>  <compound_id>  (197) 
46318

>  <target_id>  (197) 
1

>  <reference_id>  (197) 
70

>  <inspiration_ids>  (197) 
[13, 70]

>  <energy_score>  (197) 
-21.796667347792663

>  <distance_score>  (197) 
2.4945268749592975

>  <path>  (197) 
/opt/xchem-fragalysis-2/maxwin/BulkDock/SCRATCH/511023/C46318-P70/C46318-P70.minimised.mol

>  <scratch_subdir>  (197) 
/opt/xchem-fragalysis-2/maxwin/BulkDock/SCRATCH/511023/C46318-P70

>  <fragmenstein_runtime>  (197) 
3.3028690814971924

>  <fragmenstein_outcome>  (197) 
too moved

>  <fragmenstein_mode>  (197) 
expansion

>  <fragmenstein_error>  (197) 


$$$$
C46319-P13
     RDKit          3D

 41 42  0  0  0  0  0  0  0  0999 V2000
   -0.0277   -1.8721   32.0904 O   0  0  0  0  0  0  0  0  0  0  0  0
   -0.9693   -1.7959   30.9957 S   0  0  0  0  0  0  0  0  0  0  0  0
   -2.2513   -2.4612   31.0917 O   0  0  0  0  0  0  0  0  0  0  0  0
   -1.2278   -0.0569   30.5452 C   0  0  0  0  0  0  0  0  0  0  0  0
   -2.1409    0.0644   29.3244 C   0  0  0  0  0  0  0  0  0  0  0  0
   -2.0631    1.0926   28.2575 N   0  0  0  0  0  0  0  0  0  0  0  0
   -1.5046    2.3478   28.1870 C   0  0  0  0  0  0  0  0  0  0  0  0
   -1.9048    2.9335   27.0067 C   0  0  0  0  0  0  0  0  0  0  0  0
   -2.6233    1.9290   26.3671 C   0  0  0  0  0  0  0  0  0  0  0  0
   -2.6232    0.7874   27.0580 N   0  0  0  0  0  0  0  0  0  0  0  0
   -0.2229   -2.3923   29.6384 N   0  0  0  0  0  0  0  0  0  0  0  0
    1.2213   -2.6398   29.6393 C   0  0  0  0  0  0  0  0  0  0  0  0
    2.0573   -1.4992   29.0215 C   0  0  0  0  0  0  0  0  0  0  0  0
    1.5349   -1.1164   27.6524 C   0  0  0  0  0  0  0  0  0  0  0  0
    0.7131    0.1395   27.5593 C   0  0  0  0  0  0  0  0  0  0  0  0
    1.5312    1.4060   27.4226 C   0  0  0  0  0  0  0  0  0  0  0  0
    2.0143    1.8531   28.7162 N   0  0  0  0  0  0  0  0  0  0  0  0
    2.9692    0.9294   29.3196 C   0  0  0  0  0  0  0  0  0  0  0  0
    2.3865   -0.3377   29.9676 C   0  0  0  0  0  0  0  0  0  0  0  0
   -0.2864    0.4633   30.4336 H   0  0  0  0  0  0  0  0  0  0  0  0
   -1.7121    0.3734   31.4281 H   0  0  0  0  0  0  0  0  0  0  0  0
   -2.1801   -0.8832   28.7747 H   0  0  0  0  0  0  0  0  0  0  0  0
   -3.1094    0.2091   29.7845 H   0  0  0  0  0  0  0  0  0  0  0  0
   -0.8762    2.7495   28.9649 H   0  0  0  0  0  0  0  0  0  0  0  0
   -1.7003    3.9394   26.6696 H   0  0  0  0  0  0  0  0  0  0  0  0
   -3.1305    1.9728   25.4146 H   0  0  0  0  0  0  0  0  0  0  0  0
   -0.8102   -2.9696   29.0262 H   0  0  0  0  0  0  0  0  0  0  0  0
    1.3793   -3.5503   29.0450 H   0  0  0  0  0  0  0  0  0  0  0  0
    1.5963   -2.8906   30.6365 H   0  0  0  0  0  0  0  0  0  0  0  0
    3.0330   -1.9740   28.8291 H   0  0  0  0  0  0  0  0  0  0  0  0
    0.9149   -1.9448   27.3203 H   0  0  0  0  0  0  0  0  0  0  0  0
    2.3917   -1.0390   26.9743 H   0  0  0  0  0  0  0  0  0  0  0  0
    0.1209    0.1852   28.4523 H   0  0  0  0  0  0  0  0  0  0  0  0
    0.0190    0.0708   26.7268 H   0  0  0  0  0  0  0  0  0  0  0  0
    0.9234    2.2062   26.9925 H   0  0  0  0  0  0  0  0  0  0  0  0
    2.3679    1.2732   26.7265 H   0  0  0  0  0  0  0  0  0  0  0  0
    1.2425    2.0349   29.3498 H   0  0  0  0  0  0  0  0  0  0  0  0
    3.7649    0.6676   28.6109 H   0  0  0  0  0  0  0  0  0  0  0  0
    3.4694    1.4926   30.1175 H   0  0  0  0  0  0  0  0  0  0  0  0
    1.5485   -0.0730   30.6056 H   0  0  0  0  0  0  0  0  0  0  0  0
    3.1401   -0.7118   30.6758 H   0  0  0  0  0  0  0  0  0  0  0  0
  1  2  2  0
  2  3  2  0
  2  4  1  0
  4  5  1  0
  5  6  1  0
  6  7  1  0
  7  8  2  0
  8  9  1  0
  9 10  2  0
  2 11  1  0
 11 12  1  0
 12 13  1  0
 13 14  1  0
 14 15  1  0
 15 16  1  0
 16 17  1  0
 17 18  1  0
 18 19  1  0
 10  6  1  0
 19 13  1  0
  4 20  1  0
  4 21  1  0
  5 22  1  0
  5 23  1  0
  7 24  1  0
  8 25  1  0
  9 26  1  0
 11 27  1  0
 12 28  1  0
 12 29  1  0
 13 30  1  0
 14 31  1  0
 14 32  1  0
 15 33  1  0
 15 34  1  0
 16 35  1  0
 16 36  1  0
 17 37  1  0
 18 38  1  0
 18 39  1  0
 19 40  1  0
 19 41  1  0
M  END
>  <Energy>  (198) 
-54.621449691017048

>  <compound_id>  (198) 
46319

>  <target_id>  (198) 
1

>  <reference_id>  (198) 
13

>  <inspiration_ids>  (198) 
[13, 70]

>  <energy_score>  (198) 
-13.862151886015937

>  <distance_score>  (198) 
2.416456295988192

>  <path>  (198) 
/opt/xchem-fragalysis-2/maxwin/BulkDock/SCRATCH/511023/C46319-P13/C46319-P13.minimised.mol

>  <scratch_subdir>  (198) 
/opt/xchem-fragalysis-2/maxwin/BulkDock/SCRATCH/511023/C46319-P13

>  <fragmenstein_runtime>  (198) 
2.8203442096710205

>  <fragmenstein_outcome>  (198) 
too moved

>  <fragmenstein_mode>  (198) 
expansion

>  <fragmenstein_error>  (198) 


$$$$
C46319-P70
     RDKit          3D

 41 42  0  0  0  0  0  0  0  0999 V2000
    0.0483   -1.9500   32.0280 O   0  0  0  0  0  0  0  0  0  0  0  0
   -0.9438   -1.7725   30.9918 S   0  0  0  0  0  0  0  0  0  0  0  0
   -2.2593   -2.3610   31.1348 O   0  0  0  0  0  0  0  0  0  0  0  0
   -1.1169    0.0053   30.6058 C   0  0  0  0  0  0  0  0  0  0  0  0
   -2.0790    0.2187   29.4343 C   0  0  0  0  0  0  0  0  0  0  0  0
   -1.9502    1.2382   28.3671 N   0  0  0  0  0  0  0  0  0  0  0  0
   -1.3414    2.4656   28.3187 C   0  0  0  0  0  0  0  0  0  0  0  0
   -1.7598    3.1054   27.1732 C   0  0  0  0  0  0  0  0  0  0  0  0
   -2.5461    2.1552   26.5287 C   0  0  0  0  0  0  0  0  0  0  0  0
   -2.5481    0.9814   27.1674 N   0  0  0  0  0  0  0  0  0  0  0  0
   -0.3207   -2.3884   29.5781 N   0  0  0  0  0  0  0  0  0  0  0  0
    1.0902   -2.7867   29.4925 C   0  0  0  0  0  0  0  0  0  0  0  0
    1.9973   -1.7373   28.8213 C   0  0  0  0  0  0  0  0  0  0  0  0
    1.4361   -1.3113   27.4771 C   0  0  0  0  0  0  0  0  0  0  0  0
    0.6429   -0.0280   27.5071 C   0  0  0  0  0  0  0  0  0  0  0  0
    1.4926    1.2201   27.3389 C   0  0  0  0  0  0  0  0  0  0  0  0
    2.0756    1.6268   28.6039 N   0  0  0  0  0  0  0  0  0  0  0  0
    3.0386    0.6524   29.1086 C   0  0  0  0  0  0  0  0  0  0  0  0
    2.4468   -0.6063   29.7613 C   0  0  0  0  0  0  0  0  0  0  0  0
   -0.1440    0.4577   30.4559 H   0  0  0  0  0  0  0  0  0  0  0  0
   -1.5303    0.4512   31.5179 H   0  0  0  0  0  0  0  0  0  0  0  0
   -2.2042   -0.7165   28.8780 H   0  0  0  0  0  0  0  0  0  0  0  0
   -3.0250    0.4450   29.9165 H   0  0  0  0  0  0  0  0  0  0  0  0
   -0.6774    2.8141   29.0939 H   0  0  0  0  0  0  0  0  0  0  0  0
   -1.5314    4.1167   26.8676 H   0  0  0  0  0  0  0  0  0  0  0  0
   -3.1014    2.2660   25.6088 H   0  0  0  0  0  0  0  0  0  0  0  0
   -0.9839   -2.8912   28.9799 H   0  0  0  0  0  0  0  0  0  0  0  0
    1.1177   -3.7089   28.8959 H   0  0  0  0  0  0  0  0  0  0  0  0
    1.4961   -3.0732   30.4677 H   0  0  0  0  0  0  0  0  0  0  0  0
    2.9202   -2.2903   28.5858 H   0  0  0  0  0  0  0  0  0  0  0  0
    0.7969   -2.1210   27.1267 H   0  0  0  0  0  0  0  0  0  0  0  0
    2.2585   -1.2321   26.7558 H   0  0  0  0  0  0  0  0  0  0  0  0
    0.1296    0.0059   28.4499 H   0  0  0  0  0  0  0  0  0  0  0  0
   -0.1349   -0.0482   26.7512 H   0  0  0  0  0  0  0  0  0  0  0  0
    0.8884    2.0448   26.9556 H   0  0  0  0  0  0  0  0  0  0  0  0
    2.2869    1.0825   26.5967 H   0  0  0  0  0  0  0  0  0  0  0  0
    1.3592    1.8139   29.2961 H   0  0  0  0  0  0  0  0  0  0  0  0
    3.7703    0.3805   28.3376 H   0  0  0  0  0  0  0  0  0  0  0  0
    3.6160    1.1725   29.8831 H   0  0  0  0  0  0  0  0  0  0  0  0
    1.6612   -0.3204   30.4566 H   0  0  0  0  0  0  0  0  0  0  0  0
    3.2262   -1.0290   30.4120 H   0  0  0  0  0  0  0  0  0  0  0  0
  1  2  2  0
  2  3  2  0
  2  4  1  0
  4  5  1  0
  5  6  1  0
  6  7  1  0
  7  8  2  0
  8  9  1  0
  9 10  2  0
  2 11  1  0
 11 12  1  0
 12 13  1  0
 13 14  1  0
 14 15  1  0
 15 16  1  0
 16 17  1  0
 17 18  1  0
 18 19  1  0
 10  6  1  0
 19 13  1  0
  4 20  1  0
  4 21  1  0
  5 22  1  0
  5 23  1  0
  7 24  1  0
  8 25  1  0
  9 26  1  0
 11 27  1  0
 12 28  1  0
 12 29  1  0
 13 30  1  0
 14 31  1  0
 14 32  1  0
 15 33  1  0
 15 34  1  0
 16 35  1  0
 16 36  1  0
 17 37  1  0
 18 38  1  0
 18 39  1  0
 19 40  1  0
 19 41  1  0
M  END
>  <Energy>  (199) 
-56.265754221237344

>  <compound_id>  (199) 
46319

>  <target_id>  (199) 
1

>  <reference_id>  (199) 
70

>  <inspiration_ids>  (199) 
[13, 70]

>  <energy_score>  (199) 
-15.506456416236588

>  <distance_score>  (199) 
2.4175933004638686

>  <path>  (199) 
/opt/xchem-fragalysis-2/maxwin/BulkDock/SCRATCH/511023/C46319-P70/C46319-P70.minimised.mol

>  <scratch_subdir>  (199) 
/opt/xchem-fragalysis-2/maxwin/BulkDock/SCRATCH/511023/C46319-P70

>  <fragmenstein_runtime>  (199) 
3.2869644165039062

>  <fragmenstein_outcome>  (199) 
too moved

>  <fragmenstein_mode>  (199) 
expansion

>  <fragmenstein_error>  (199) 


$$$$
C46320-P13
     RDKit          3D

 33 34  0  0  0  0  0  0  0  0999 V2000
    0.0393   -2.3169   31.8126 O   0  0  0  0  0  0  0  0  0  0  0  0
   -1.0445   -2.0246   30.8999 S   0  0  0  0  0  0  0  0  0  0  0  0
   -2.4033   -2.3806   31.2590 O   0  0  0  0  0  0  0  0  0  0  0  0
   -1.0185   -0.2723   30.4399 C   0  0  0  0  0  0  0  0  0  0  0  0
   -2.0031    0.0117   29.3016 C   0  0  0  0  0  0  0  0  0  0  0  0
   -1.8039    1.1038   28.3467 N   0  0  0  0  0  0  0  0  0  0  0  0
   -1.0750    2.2581   28.4545 C   0  0  0  0  0  0  0  0  0  0  0  0
   -1.4365    3.0615   27.3958 C   0  0  0  0  0  0  0  0  0  0  0  0
   -2.3071    2.2701   26.6360 C   0  0  0  0  0  0  0  0  0  0  0  0
   -2.4801    1.0589   27.1705 N   0  0  0  0  0  0  0  0  0  0  0  0
   -0.7423   -2.8332   29.4894 N   0  0  0  0  0  0  0  0  0  0  0  0
    0.6286   -3.0385   29.0259 C   0  0  0  0  0  0  0  0  0  0  0  0
    1.3514   -1.8295   28.4136 C   0  0  0  0  0  0  0  0  0  0  0  0
    0.5444   -0.8596   27.6384 C   0  0  0  0  0  0  0  0  0  0  0  0
    1.1465    0.3308   27.6499 C   0  0  0  0  0  0  0  0  0  0  0  0
    2.2758    0.3233   28.6048 C   0  0  0  0  0  0  0  0  0  0  0  0
    2.0740   -0.9389   29.3458 N   0  0  0  0  0  0  0  0  0  0  0  0
   -0.0007    0.0307   30.2321 H   0  0  0  0  0  0  0  0  0  0  0  0
   -1.3216    0.2706   31.3423 H   0  0  0  0  0  0  0  0  0  0  0  0
   -2.9446    0.2310   29.7999 H   0  0  0  0  0  0  0  0  0  0  0  0
   -2.1755   -0.8755   28.6854 H   0  0  0  0  0  0  0  0  0  0  0  0
   -0.3945    2.4371   29.2748 H   0  0  0  0  0  0  0  0  0  0  0  0
   -1.1070    4.0717   27.1985 H   0  0  0  0  0  0  0  0  0  0  0  0
   -2.8185    2.5189   25.7145 H   0  0  0  0  0  0  0  0  0  0  0  0
   -1.5069   -2.9674   28.8174 H   0  0  0  0  0  0  0  0  0  0  0  0
    1.2361   -3.4814   29.8239 H   0  0  0  0  0  0  0  0  0  0  0  0
    0.5708   -3.8153   28.2555 H   0  0  0  0  0  0  0  0  0  0  0  0
    2.1101   -2.2541   27.7399 H   0  0  0  0  0  0  0  0  0  0  0  0
   -0.3396   -1.0975   27.0712 H   0  0  0  0  0  0  0  0  0  0  0  0
    0.8548    1.1936   27.0734 H   0  0  0  0  0  0  0  0  0  0  0  0
    2.2359    1.1715   29.2933 H   0  0  0  0  0  0  0  0  0  0  0  0
    3.2338    0.3261   28.0746 H   0  0  0  0  0  0  0  0  0  0  0  0
    2.9743   -1.3415   29.5964 H   0  0  0  0  0  0  0  0  0  0  0  0
  1  2  2  0
  2  3  2  0
  2  4  1  0
  4  5  1  0
  5  6  1  0
  6  7  1  0
  7  8  2  0
  8  9  1  0
  9 10  2  0
  2 11  1  0
 11 12  1  0
 12 13  1  0
 13 14  1  0
 14 15  2  0
 15 16  1  0
 16 17  1  0
 10  6  1  0
 17 13  1  0
  4 18  1  0
  4 19  1  0
  5 20  1  0
  5 21  1  0
  7 22  1  0
  8 23  1  0
  9 24  1  0
 11 25  1  0
 12 26  1  0
 12 27  1  0
 13 28  1  0
 14 29  1  0
 15 30  1  0
 16 31  1  0
 16 32  1  0
 17 33  1  0
M  END
>  <Energy>  (200) 
-62.922375509269898

>  <compound_id>  (200) 
46320

>  <target_id>  (200) 
1

>  <reference_id>  (200) 
13

>  <inspiration_ids>  (200) 
[13, 70]

>  <energy_score>  (200) 
-15.4817119320066

>  <distance_score>  (200) 
1.6356442722694347

>  <path>  (200) 
/opt/xchem-fragalysis-2/maxwin/BulkDock/SCRATCH/511023/C46320-P13/C46320-P13.minimised.mol

>  <scratch_subdir>  (200) 
/opt/xchem-fragalysis-2/maxwin/BulkDock/SCRATCH/511023/C46320-P13

>  <fragmenstein_runtime>  (200) 
5.7197558879852295

>  <fragmenstein_outcome>  (200) 
too moved

>  <fragmenstein_mode>  (200) 
expansion

>  <fragmenstein_error>  (200) 


$$$$
C46320-P70
     RDKit          3D

 33 34  0  0  0  0  0  0  0  0999 V2000
    0.1256   -2.4190   31.7231 O   0  0  0  0  0  0  0  0  0  0  0  0
   -0.9831   -2.0503   30.8705 S   0  0  0  0  0  0  0  0  0  0  0  0
   -2.3401   -2.3610   31.2772 O   0  0  0  0  0  0  0  0  0  0  0  0
   -0.9071   -0.2810   30.4730 C   0  0  0  0  0  0  0  0  0  0  0  0
   -1.9372    0.0883   29.4006 C   0  0  0  0  0  0  0  0  0  0  0  0
   -1.7112    1.1770   28.4493 N   0  0  0  0  0  0  0  0  0  0  0  0
   -0.9771    2.3217   28.5839 C   0  0  0  0  0  0  0  0  0  0  0  0
   -1.3359    3.1491   27.5428 C   0  0  0  0  0  0  0  0  0  0  0  0
   -2.2033    2.3757   26.7601 C   0  0  0  0  0  0  0  0  0  0  0  0
   -2.3623    1.1439   27.2540 N   0  0  0  0  0  0  0  0  0  0  0  0
   -0.7880   -2.8212   29.4203 N   0  0  0  0  0  0  0  0  0  0  0  0
    0.5409   -3.1010   28.8714 C   0  0  0  0  0  0  0  0  0  0  0  0
    1.2940   -1.9178   28.2433 C   0  0  0  0  0  0  0  0  0  0  0  0
    0.4907   -0.8605   27.5882 C   0  0  0  0  0  0  0  0  0  0  0  0
    1.1480    0.2994   27.6362 C   0  0  0  0  0  0  0  0  0  0  0  0
    2.3444    0.1727   28.4933 C   0  0  0  0  0  0  0  0  0  0  0  0
    2.1275   -1.1206   29.1732 N   0  0  0  0  0  0  0  0  0  0  0  0
    0.1132   -0.0199   30.2185 H   0  0  0  0  0  0  0  0  0  0  0  0
   -1.1385    0.2438   31.4072 H   0  0  0  0  0  0  0  0  0  0  0  0
   -2.8441    0.3649   29.9398 H   0  0  0  0  0  0  0  0  0  0  0  0
   -2.1828   -0.7766   28.7787 H   0  0  0  0  0  0  0  0  0  0  0  0
   -0.2979    2.4777   29.4101 H   0  0  0  0  0  0  0  0  0  0  0  0
   -1.0082    4.1653   27.3732 H   0  0  0  0  0  0  0  0  0  0  0  0
   -2.7176    2.6544   25.8491 H   0  0  0  0  0  0  0  0  0  0  0  0
   -1.5961   -2.9493   28.8047 H   0  0  0  0  0  0  0  0  0  0  0  0
    1.1646   -3.5958   29.6253 H   0  0  0  0  0  0  0  0  0  0  0  0
    0.3899   -3.8595   28.0920 H   0  0  0  0  0  0  0  0  0  0  0  0
    1.9699   -2.3502   27.4909 H   0  0  0  0  0  0  0  0  0  0  0  0
   -0.4339   -1.0220   27.0677 H   0  0  0  0  0  0  0  0  0  0  0  0
    0.8730    1.2092   27.1274 H   0  0  0  0  0  0  0  0  0  0  0  0
    2.4064    0.9766   29.2315 H   0  0  0  0  0  0  0  0  0  0  0  0
    3.2575    0.1590   27.8890 H   0  0  0  0  0  0  0  0  0  0  0  0
    3.0238   -1.5826   29.3118 H   0  0  0  0  0  0  0  0  0  0  0  0
  1  2  2  0
  2  3  2  0
  2  4  1  0
  4  5  1  0
  5  6  1  0
  6  7  1  0
  7  8  2  0
  8  9  1  0
  9 10  2  0
  2 11  1  0
 11 12  1  0
 12 13  1  0
 13 14  1  0
 14 15  2  0
 15 16  1  0
 16 17  1  0
 10  6  1  0
 17 13  1  0
  4 18  1  0
  4 19  1  0
  5 20  1  0
  5 21  1  0
  7 22  1  0
  8 23  1  0
  9 24  1  0
 11 25  1  0
 12 26  1  0
 12 27  1  0
 13 28  1  0
 14 29  1  0
 15 30  1  0
 16 31  1  0
 16 32  1  0
 17 33  1  0
M  END
>  <Energy>  (201) 
-63.443852309233669

>  <compound_id>  (201) 
46320

>  <target_id>  (201) 
1

>  <reference_id>  (201) 
70

>  <inspiration_ids>  (201) 
[13, 70]

>  <energy_score>  (201) 
-16.003188731971022

>  <distance_score>  (201) 
1.6517108377106888

>  <path>  (201) 
/opt/xchem-fragalysis-2/maxwin/BulkDock/SCRATCH/511023/C46320-P70/C46320-P70.minimised.mol

>  <scratch_subdir>  (201) 
/opt/xchem-fragalysis-2/maxwin/BulkDock/SCRATCH/511023/C46320-P70

>  <fragmenstein_runtime>  (201) 
6.785808563232422

>  <fragmenstein_outcome>  (201) 
too moved

>  <fragmenstein_mode>  (201) 
expansion

>  <fragmenstein_error>  (201) 


$$$$
C46328-P13
     RDKit          3D

 44 45  0  0  0  0  0  0  0  0999 V2000
    0.0914   -2.1610   31.8937 O   0  0  0  0  0  0  0  0  0  0  0  0
   -0.9610   -1.9632   30.9200 S   0  0  0  0  0  0  0  0  0  0  0  0
   -2.2797   -2.5176   31.1544 O   0  0  0  0  0  0  0  0  0  0  0  0
   -1.1304   -0.1623   30.5620 C   0  0  0  0  0  0  0  0  0  0  0  0
   -2.0351    0.0969   29.3515 C   0  0  0  0  0  0  0  0  0  0  0  0
   -1.8974    1.1946   28.2583 C   0  0  0  0  0  0  0  0  0  0  0  0
   -1.3148    2.4723   28.3489 C   0  0  0  0  0  0  0  0  0  0  0  0
   -1.2932    3.4044   27.2781 C   0  0  0  0  0  0  0  0  0  0  0  0
   -1.8619    3.0784   26.0651 C   0  0  0  0  0  0  0  0  0  0  0  0
   -1.6685    4.0362   24.6523 Cl  0  0  0  0  0  0  0  0  0  0  0  0
   -2.4833    1.8567   25.9558 C   0  0  0  0  0  0  0  0  0  0  0  0
   -2.4444    0.9146   26.9988 C   0  0  0  0  0  0  0  0  0  0  0  0
   -0.4328   -2.6383   29.4940 N   0  0  0  0  0  0  0  0  0  0  0  0
    0.9894   -2.6270   29.1249 C   0  0  0  0  0  0  0  0  0  0  0  0
    1.5314   -1.2075   28.9329 C   0  0  0  0  0  0  0  0  0  0  0  0
    0.9693   -0.5911   27.6630 C   0  0  0  0  0  0  0  0  0  0  0  0
    1.0471    0.9201   27.6303 C   0  0  0  0  0  0  0  0  0  0  0  0
    2.3363    1.5870   27.2192 C   0  0  0  0  0  0  0  0  0  0  0  0
    3.5114    0.7854   27.4558 N   0  0  0  0  0  0  0  0  0  0  0  0
    3.6209    0.2613   28.8088 C   0  0  0  0  0  0  0  0  0  0  0  0
    3.0577   -1.1622   28.9215 C   0  0  0  0  0  0  0  0  0  0  0  0
   -1.6005    0.2397   31.4679 H   0  0  0  0  0  0  0  0  0  0  0  0
   -0.1665    0.3272   30.4954 H   0  0  0  0  0  0  0  0  0  0  0  0
   -3.0040    0.2663   29.8141 H   0  0  0  0  0  0  0  0  0  0  0  0
   -2.1458   -0.8427   28.7993 H   0  0  0  0  0  0  0  0  0  0  0  0
   -0.7499    2.7741   29.2292 H   0  0  0  0  0  0  0  0  0  0  0  0
   -0.7828    4.3550   27.4098 H   0  0  0  0  0  0  0  0  0  0  0  0
   -2.9541    1.6057   25.0285 H   0  0  0  0  0  0  0  0  0  0  0  0
   -2.8072   -0.0853   26.7890 H   0  0  0  0  0  0  0  0  0  0  0  0
   -1.1302   -2.8857   28.7846 H   0  0  0  0  0  0  0  0  0  0  0  0
    1.1158   -3.2159   28.2099 H   0  0  0  0  0  0  0  0  0  0  0  0
    1.5526   -3.1527   29.9049 H   0  0  0  0  0  0  0  0  0  0  0  0
    1.2676   -0.6172   29.8020 H   0  0  0  0  0  0  0  0  0  0  0  0
    1.5579   -0.9721   26.8409 H   0  0  0  0  0  0  0  0  0  0  0  0
   -0.0679   -0.8997   27.5147 H   0  0  0  0  0  0  0  0  0  0  0  0
    0.3252    1.2562   26.8912 H   0  0  0  0  0  0  0  0  0  0  0  0
    0.8090    1.2940   28.6261 H   0  0  0  0  0  0  0  0  0  0  0  0
    2.4255    2.5538   27.7312 H   0  0  0  0  0  0  0  0  0  0  0  0
    2.3111    1.8318   26.1528 H   0  0  0  0  0  0  0  0  0  0  0  0
    4.3359    1.3454   27.2352 H   0  0  0  0  0  0  0  0  0  0  0  0
    3.1918    0.9347   29.5608 H   0  0  0  0  0  0  0  0  0  0  0  0
    4.6907    0.1967   29.0444 H   0  0  0  0  0  0  0  0  0  0  0  0
    3.4303   -1.5984   29.8577 H   0  0  0  0  0  0  0  0  0  0  0  0
    3.4569   -1.7919   28.1153 H   0  0  0  0  0  0  0  0  0  0  0  0
  1  2  2  0
  2  3  2  0
  2  4  1  0
  4  5  1  0
  5  6  1  0
  6  7  2  0
  7  8  1  0
  8  9  2  0
  9 10  1  0
  9 11  1  0
 11 12  2  0
  2 13  1  0
 13 14  1  0
 14 15  1  0
 15 16  1  0
 16 17  1  0
 17 18  1  0
 18 19  1  0
 19 20  1  0
 20 21  1  0
 12  6  1  0
 21 15  1  0
  4 22  1  0
  4 23  1  0
  5 24  1  0
  5 25  1  0
  7 26  1  0
  8 27  1  0
 11 28  1  0
 12 29  1  0
 13 30  1  0
 14 31  1  0
 14 32  1  0
 15 33  1  0
 16 34  1  0
 16 35  1  0
 17 36  1  0
 17 37  1  0
 18 38  1  0
 18 39  1  0
 19 40  1  0
 20 41  1  0
 20 42  1  0
 21 43  1  0
 21 44  1  0
M  END
>  <Energy>  (202) 
-12.616680600245807

>  <compound_id>  (202) 
46328

>  <target_id>  (202) 
1

>  <reference_id>  (202) 
13

>  <inspiration_ids>  (202) 
[13, 70]

>  <energy_score>  (202) 
-0.7396888451323491

>  <distance_score>  (202) 
2.669470154518414

>  <path>  (202) 
/opt/xchem-fragalysis-2/maxwin/BulkDock/SCRATCH/511023/C46328-P13/C46328-P13.minimised.mol

>  <scratch_subdir>  (202) 
/opt/xchem-fragalysis-2/maxwin/BulkDock/SCRATCH/511023/C46328-P13

>  <fragmenstein_runtime>  (202) 
6.600137233734131

>  <fragmenstein_outcome>  (202) 
too moved

>  <fragmenstein_mode>  (202) 
expansion

>  <fragmenstein_error>  (202) 


$$$$
C46328-P70
     RDKit          3D

 44 45  0  0  0  0  0  0  0  0999 V2000
    0.0724   -2.2033   31.9229 O   0  0  0  0  0  0  0  0  0  0  0  0
   -0.9774   -1.9426   30.9610 S   0  0  0  0  0  0  0  0  0  0  0  0
   -2.3186   -2.4376   31.2017 O   0  0  0  0  0  0  0  0  0  0  0  0
   -1.0651   -0.1170   30.6266 C   0  0  0  0  0  0  0  0  0  0  0  0
   -1.9705    0.2139   29.4310 C   0  0  0  0  0  0  0  0  0  0  0  0
   -1.8153    1.3555   28.3870 C   0  0  0  0  0  0  0  0  0  0  0  0
   -1.0779    2.5420   28.4945 C   0  0  0  0  0  0  0  0  0  0  0  0
   -0.9934    3.4951   27.4430 C   0  0  0  0  0  0  0  0  0  0  0  0
   -1.6922    3.3075   26.2637 C   0  0  0  0  0  0  0  0  0  0  0  0
   -1.4504    4.2686   24.8612 Cl  0  0  0  0  0  0  0  0  0  0  0  0
   -2.5149    2.2131   26.1694 C   0  0  0  0  0  0  0  0  0  0  0  0
   -2.4965    1.2223   27.1640 C   0  0  0  0  0  0  0  0  0  0  0  0
   -0.5014   -2.6612   29.5344 N   0  0  0  0  0  0  0  0  0  0  0  0
    0.9199   -2.7268   29.1454 C   0  0  0  0  0  0  0  0  0  0  0  0
    1.4828   -1.3371   28.8707 C   0  0  0  0  0  0  0  0  0  0  0  0
    0.9313   -0.8003   27.5624 C   0  0  0  0  0  0  0  0  0  0  0  0
    0.9887    0.7122   27.5049 C   0  0  0  0  0  0  0  0  0  0  0  0
    2.2619    1.4136   27.1004 C   0  0  0  0  0  0  0  0  0  0  0  0
    3.4602    0.6874   27.4309 N   0  0  0  0  0  0  0  0  0  0  0  0
    3.5374    0.1694   28.7843 C   0  0  0  0  0  0  0  0  0  0  0  0
    3.0053   -1.2694   28.8887 C   0  0  0  0  0  0  0  0  0  0  0  0
   -1.5058    0.2990   31.5418 H   0  0  0  0  0  0  0  0  0  0  0  0
   -0.0747    0.3199   30.5614 H   0  0  0  0  0  0  0  0  0  0  0  0
   -2.9374    0.3880   29.9013 H   0  0  0  0  0  0  0  0  0  0  0  0
   -2.0813   -0.6954   28.8309 H   0  0  0  0  0  0  0  0  0  0  0  0
   -0.4551    2.7326   29.3677 H   0  0  0  0  0  0  0  0  0  0  0  0
   -0.3454    4.3603   27.5624 H   0  0  0  0  0  0  0  0  0  0  0  0
   -3.1477    2.1110   25.3067 H   0  0  0  0  0  0  0  0  0  0  0  0
   -3.0179    0.3025   26.9477 H   0  0  0  0  0  0  0  0  0  0  0  0
   -1.2085   -2.8164   28.8115 H   0  0  0  0  0  0  0  0  0  0  0  0
    1.0108   -3.3688   28.2615 H   0  0  0  0  0  0  0  0  0  0  0  0
    1.4787   -3.2244   29.9462 H   0  0  0  0  0  0  0  0  0  0  0  0
    1.1989   -0.6998   29.6962 H   0  0  0  0  0  0  0  0  0  0  0  0
    1.5014   -1.2491   26.7492 H   0  0  0  0  0  0  0  0  0  0  0  0
   -0.1152   -1.0973   27.4519 H   0  0  0  0  0  0  0  0  0  0  0  0
    0.7727    1.0707   28.5083 H   0  0  0  0  0  0  0  0  0  0  0  0
    0.2322    1.0451   26.7978 H   0  0  0  0  0  0  0  0  0  0  0  0
    2.2876    2.4077   27.5652 H   0  0  0  0  0  0  0  0  0  0  0  0
    2.2684    1.6057   26.0229 H   0  0  0  0  0  0  0  0  0  0  0  0
    4.2708    1.2692   27.2259 H   0  0  0  0  0  0  0  0  0  0  0  0
    3.0703    0.8374   29.5180 H   0  0  0  0  0  0  0  0  0  0  0  0
    4.6004    0.1304   29.0545 H   0  0  0  0  0  0  0  0  0  0  0  0
    3.3671   -1.6923   29.8351 H   0  0  0  0  0  0  0  0  0  0  0  0
    3.4325   -1.8947   28.0939 H   0  0  0  0  0  0  0  0  0  0  0  0
  1  2  2  0
  2  3  2  0
  2  4  1  0
  4  5  1  0
  5  6  1  0
  6  7  2  0
  7  8  1  0
  8  9  2  0
  9 10  1  0
  9 11  1  0
 11 12  2  0
  2 13  1  0
 13 14  1  0
 14 15  1  0
 15 16  1  0
 16 17  1  0
 17 18  1  0
 18 19  1  0
 19 20  1  0
 20 21  1  0
 12  6  1  0
 21 15  1  0
  4 22  1  0
  4 23  1  0
  5 24  1  0
  5 25  1  0
  7 26  1  0
  8 27  1  0
 11 28  1  0
 12 29  1  0
 13 30  1  0
 14 31  1  0
 14 32  1  0
 15 33  1  0
 16 34  1  0
 16 35  1  0
 17 36  1  0
 17 37  1  0
 18 38  1  0
 18 39  1  0
 19 40  1  0
 20 41  1  0
 20 42  1  0
 21 43  1  0
 21 44  1  0
M  END
>  <Energy>  (203) 
-12.221231820467334

>  <compound_id>  (203) 
46328

>  <target_id>  (203) 
1

>  <reference_id>  (203) 
70

>  <inspiration_ids>  (203) 
[13, 70]

>  <energy_score>  (203) 
-0.34424006535519425

>  <distance_score>  (203) 
2.730153221381902

>  <path>  (203) 
/opt/xchem-fragalysis-2/maxwin/BulkDock/SCRATCH/511023/C46328-P70/C46328-P70.minimised.mol

>  <scratch_subdir>  (203) 
/opt/xchem-fragalysis-2/maxwin/BulkDock/SCRATCH/511023/C46328-P70

>  <fragmenstein_runtime>  (203) 
6.436384677886963

>  <fragmenstein_outcome>  (203) 
too moved

>  <fragmenstein_mode>  (203) 
expansion

>  <fragmenstein_error>  (203) 


$$$$
C39168-P13
     RDKit          3D

 38 39  0  0  0  0  0  0  0  0999 V2000
    0.7394   -2.2637   32.2177 O   0  0  0  0  0  0  0  0  0  0  0  0
   -0.3173   -1.4823   31.6103 S   0  0  0  0  0  0  0  0  0  0  0  0
   -1.4818   -1.0933   32.3757 O   0  0  0  0  0  0  0  0  0  0  0  0
    0.4813    0.0285   30.8132 C   0  0  0  0  0  0  0  0  0  0  0  0
   -0.4466    1.2136   30.3731 C   0  0  0  0  0  0  0  0  0  0  0  0
   -0.4122    2.0771   29.0369 C   0  0  0  0  0  0  0  0  0  0  0  0
   -1.6183    2.3954   28.3326 C   0  0  0  0  0  0  0  0  0  0  0  0
   -1.7080    3.1274   27.1218 C   0  0  0  0  0  0  0  0  0  0  0  0
   -0.5387    3.5210   26.5149 C   0  0  0  0  0  0  0  0  0  0  0  0
   -0.5667    4.0166   24.8632 Cl  0  0  0  0  0  0  0  0  0  0  0  0
    0.6638    3.3254   27.2079 C   0  0  0  0  0  0  0  0  0  0  0  0
    0.7240    2.6469   28.4680 C   0  0  0  0  0  0  0  0  0  0  0  0
   -0.9620   -2.4925   30.4533 N   0  0  0  0  0  0  0  0  0  0  0  0
   -0.3396   -2.5576   29.1404 C   0  0  0  0  0  0  0  0  0  0  0  0
   -0.8270   -1.3182   28.4452 C   0  0  0  0  0  0  0  0  0  0  0  0
   -2.0334   -1.4655   27.5775 C   0  0  0  0  0  0  0  0  0  0  0  0
   -2.0057   -0.2118   26.7682 C   0  0  0  0  0  0  0  0  0  0  0  0
   -0.6026    0.1469   26.7218 N   0  0  0  0  0  0  0  0  0  0  0  0
    0.2045   -0.6513   27.6014 C   0  0  0  0  0  0  0  0  0  0  0  0
    1.1852   -0.3249   30.0644 H   0  0  0  0  0  0  0  0  0  0  0  0
    1.1145    0.4073   31.6284 H   0  0  0  0  0  0  0  0  0  0  0  0
   -0.3017    1.9671   31.1597 H   0  0  0  0  0  0  0  0  0  0  0  0
   -1.4640    0.8263   30.4849 H   0  0  0  0  0  0  0  0  0  0  0  0
   -2.5626    1.9798   28.6739 H   0  0  0  0  0  0  0  0  0  0  0  0
   -2.6728    3.2614   26.6403 H   0  0  0  0  0  0  0  0  0  0  0  0
    1.5976    3.6566   26.7554 H   0  0  0  0  0  0  0  0  0  0  0  0
    1.6962    2.5202   28.9402 H   0  0  0  0  0  0  0  0  0  0  0  0
   -1.9818   -2.4510   30.4440 H   0  0  0  0  0  0  0  0  0  0  0  0
    0.7494   -2.5988   29.2466 H   0  0  0  0  0  0  0  0  0  0  0  0
   -0.6573   -3.4729   28.6338 H   0  0  0  0  0  0  0  0  0  0  0  0
   -1.1918   -0.6086   29.1716 H   0  0  0  0  0  0  0  0  0  0  0  0
   -1.9548   -2.3238   26.9435 H   0  0  0  0  0  0  0  0  0  0  0  0
   -2.9425   -1.5618   28.1522 H   0  0  0  0  0  0  0  0  0  0  0  0
   -2.4408   -0.3506   25.7864 H   0  0  0  0  0  0  0  0  0  0  0  0
   -2.6350    0.5316   27.2406 H   0  0  0  0  0  0  0  0  0  0  0  0
   -0.3964    1.1280   26.7089 H   0  0  0  0  0  0  0  0  0  0  0  0
    0.8147   -1.3910   27.0995 H   0  0  0  0  0  0  0  0  0  0  0  0
    0.9281   -0.0424   28.1345 H   0  0  0  0  0  0  0  0  0  0  0  0
  1  2  2  0
  2  3  2  0
  2  4  1  0
  4  5  1  0
  5  6  1  0
  6  7  2  0
  7  8  1  0
  8  9  2  0
  9 10  1  0
  9 11  1  0
 11 12  2  0
  2 13  1  0
 13 14  1  0
 14 15  1  0
 15 16  1  0
 16 17  1  0
 17 18  1  0
 18 19  1  0
 12  6  1  0
 19 15  1  0
  4 20  1  0
  4 21  1  0
  5 22  1  0
  5 23  1  0
  7 24  1  0
  8 25  1  0
 11 26  1  0
 12 27  1  0
 13 28  1  0
 14 29  1  0
 14 30  1  0
 15 31  1  0
 16 32  1  0
 16 33  1  0
 17 34  1  0
 17 35  1  0
 18 36  1  0
 19 37  1  0
 19 38  1  0
M  END
>  <Energy>  (204) 
13.704001350973982

>  <compound_id>  (204) 
39168

>  <target_id>  (204) 
1

>  <reference_id>  (204) 
13

>  <inspiration_ids>  (204) 
[13, 70]

>  <energy_score>  (204) 
12.553312328307697

>  <distance_score>  (204) 
2.1619263901431567

>  <path>  (204) 
/opt/xchem-fragalysis-2/maxwin/BulkDock/SCRATCH/511023/C39168-P13/C39168-P13.minimised.mol

>  <scratch_subdir>  (204) 
/opt/xchem-fragalysis-2/maxwin/BulkDock/SCRATCH/511023/C39168-P13

>  <fragmenstein_runtime>  (204) 
5.49703311920166

>  <fragmenstein_outcome>  (204) 
too moved

>  <fragmenstein_mode>  (204) 
expansion

>  <fragmenstein_error>  (204) 


$$$$
C39168-P70
     RDKit          3D

 38 39  0  0  0  0  0  0  0  0999 V2000
    0.0585   -2.1927   31.7808 O   0  0  0  0  0  0  0  0  0  0  0  0
   -1.0068   -1.8700   30.8547 S   0  0  0  0  0  0  0  0  0  0  0  0
   -2.3648   -2.2786   31.1509 O   0  0  0  0  0  0  0  0  0  0  0  0
   -0.9850   -0.0452   30.4993 C   0  0  0  0  0  0  0  0  0  0  0  0
   -1.9291    0.3679   29.3531 C   0  0  0  0  0  0  0  0  0  0  0  0
   -1.6724    1.4658   28.2924 C   0  0  0  0  0  0  0  0  0  0  0  0
   -2.4459    1.4276   27.1138 C   0  0  0  0  0  0  0  0  0  0  0  0
   -2.3467    2.3687   26.0820 C   0  0  0  0  0  0  0  0  0  0  0  0
   -1.3401    3.3008   26.1178 C   0  0  0  0  0  0  0  0  0  0  0  0
   -1.0127    4.1952   24.6892 Cl  0  0  0  0  0  0  0  0  0  0  0  0
   -0.5653    3.3988   27.2687 C   0  0  0  0  0  0  0  0  0  0  0  0
   -0.7576    2.5159   28.3624 C   0  0  0  0  0  0  0  0  0  0  0  0
   -0.6259   -2.6237   29.4183 N   0  0  0  0  0  0  0  0  0  0  0  0
    0.7724   -2.7829   28.9772 C   0  0  0  0  0  0  0  0  0  0  0  0
    1.4533   -1.4408   28.8520 C   0  0  0  0  0  0  0  0  0  0  0  0
    0.9084   -0.6227   27.7135 C   0  0  0  0  0  0  0  0  0  0  0  0
    1.8344    0.5636   27.7261 C   0  0  0  0  0  0  0  0  0  0  0  0
    3.1430   -0.0320   28.0199 N   0  0  0  0  0  0  0  0  0  0  0  0
    2.9235   -1.4113   28.4960 C   0  0  0  0  0  0  0  0  0  0  0  0
    0.0315    0.3017   30.3471 H   0  0  0  0  0  0  0  0  0  0  0  0
   -1.3235    0.4160   31.4353 H   0  0  0  0  0  0  0  0  0  0  0  0
   -2.8555    0.6381   29.8551 H   0  0  0  0  0  0  0  0  0  0  0  0
   -2.1595   -0.5355   28.7761 H   0  0  0  0  0  0  0  0  0  0  0  0
   -3.1510    0.6273   26.9547 H   0  0  0  0  0  0  0  0  0  0  0  0
   -3.0285    2.3419   25.2442 H   0  0  0  0  0  0  0  0  0  0  0  0
    0.2122    4.1576   27.3319 H   0  0  0  0  0  0  0  0  0  0  0  0
   -0.1306    2.6515   29.2409 H   0  0  0  0  0  0  0  0  0  0  0  0
   -1.3754   -2.8128   28.7473 H   0  0  0  0  0  0  0  0  0  0  0  0
    1.3016   -3.4205   29.6940 H   0  0  0  0  0  0  0  0  0  0  0  0
    0.7748   -3.3192   28.0222 H   0  0  0  0  0  0  0  0  0  0  0  0
    1.3929   -0.9174   29.8061 H   0  0  0  0  0  0  0  0  0  0  0  0
    1.0589   -1.1978   26.8064 H   0  0  0  0  0  0  0  0  0  0  0  0
   -0.1407   -0.3885   27.7722 H   0  0  0  0  0  0  0  0  0  0  0  0
    1.8497    1.1292   26.7933 H   0  0  0  0  0  0  0  0  0  0  0  0
    1.5892    1.2468   28.5427 H   0  0  0  0  0  0  0  0  0  0  0  0
    3.6376    0.5214   28.7171 H   0  0  0  0  0  0  0  0  0  0  0  0
    3.1639   -2.1174   27.6925 H   0  0  0  0  0  0  0  0  0  0  0  0
    3.5630   -1.6423   29.3539 H   0  0  0  0  0  0  0  0  0  0  0  0
  1  2  2  0
  2  3  2  0
  2  4  1  0
  4  5  1  0
  5  6  1  0
  6  7  2  0
  7  8  1  0
  8  9  2  0
  9 10  1  0
  9 11  1  0
 11 12  2  0
  2 13  1  0
 13 14  1  0
 14 15  1  0
 15 16  1  0
 16 17  1  0
 17 18  1  0
 18 19  1  0
 12  6  1  0
 19 15  1  0
  4 20  1  0
  4 21  1  0
  5 22  1  0
  5 23  1  0
  7 24  1  0
  8 25  1  0
 11 26  1  0
 12 27  1  0
 13 28  1  0
 14 29  1  0
 14 30  1  0
 15 31  1  0
 16 32  1  0
 16 33  1  0
 17 34  1  0
 17 35  1  0
 18 36  1  0
 19 37  1  0
 19 38  1  0
M  END
>  <Energy>  (205) 
-24.672106047459909

>  <compound_id>  (205) 
39168

>  <target_id>  (205) 
1

>  <reference_id>  (205) 
70

>  <inspiration_ids>  (205) 
[13, 70]

>  <energy_score>  (205) 
-25.822795070126404

>  <distance_score>  (205) 
2.128671194842637

>  <path>  (205) 
/opt/xchem-fragalysis-2/maxwin/BulkDock/SCRATCH/511023/C39168-P70/C39168-P70.minimised.mol

>  <scratch_subdir>  (205) 
/opt/xchem-fragalysis-2/maxwin/BulkDock/SCRATCH/511023/C39168-P70

>  <fragmenstein_runtime>  (205) 
5.002124786376953

>  <fragmenstein_outcome>  (205) 
too moved

>  <fragmenstein_mode>  (205) 
expansion

>  <fragmenstein_error>  (205) 


$$$$
C39169-P13
     RDKit          3D

 38 39  0  0  0  0  0  0  0  0999 V2000
   -0.3352   -1.8849   31.6739 O   0  0  0  0  0  0  0  0  0  0  0  0
   -1.2524   -1.9054   30.5535 S   0  0  0  0  0  0  0  0  0  0  0  0
   -2.4943   -2.6312   30.7078 O   0  0  0  0  0  0  0  0  0  0  0  0
   -1.5949   -0.2117   29.9696 C   0  0  0  0  0  0  0  0  0  0  0  0
   -1.7365   -0.0223   28.4213 C   0  0  0  0  0  0  0  0  0  0  0  0
   -1.7052    1.3928   27.7994 C   0  0  0  0  0  0  0  0  0  0  0  0
   -0.9491    2.4195   28.3780 C   0  0  0  0  0  0  0  0  0  0  0  0
   -0.8670    3.7000   27.8243 C   0  0  0  0  0  0  0  0  0  0  0  0
   -1.5133    3.9868   26.6374 C   0  0  0  0  0  0  0  0  0  0  0  0
   -2.2332    2.9916   25.9989 C   0  0  0  0  0  0  0  0  0  0  0  0
   -3.0009    3.4350   24.5276 Cl  0  0  0  0  0  0  0  0  0  0  0  0
   -2.3210    1.6992   26.5578 C   0  0  0  0  0  0  0  0  0  0  0  0
   -0.4687   -2.5982   29.2647 N   0  0  0  0  0  0  0  0  0  0  0  0
    0.9591   -2.8953   29.3566 C   0  0  0  0  0  0  0  0  0  0  0  0
    1.9191   -1.7440   29.0421 C   0  0  0  0  0  0  0  0  0  0  0  0
    1.6917   -1.0964   27.6922 C   0  0  0  0  0  0  0  0  0  0  0  0
    1.8065    0.3954   27.8959 C   0  0  0  0  0  0  0  0  0  0  0  0
    1.4823    0.5844   29.3012 N   0  0  0  0  0  0  0  0  0  0  0  0
    2.0347   -0.5693   30.0020 C   0  0  0  0  0  0  0  0  0  0  0  0
   -0.8043    0.4087   30.3901 H   0  0  0  0  0  0  0  0  0  0  0  0
   -2.5297    0.0771   30.4560 H   0  0  0  0  0  0  0  0  0  0  0  0
   -0.9406   -0.5574   27.9172 H   0  0  0  0  0  0  0  0  0  0  0  0
   -2.6440   -0.5367   28.0964 H   0  0  0  0  0  0  0  0  0  0  0  0
   -0.3903    2.2514   29.2926 H   0  0  0  0  0  0  0  0  0  0  0  0
   -0.3000    4.4752   28.3344 H   0  0  0  0  0  0  0  0  0  0  0  0
   -1.4621    4.9906   26.2238 H   0  0  0  0  0  0  0  0  0  0  0  0
   -2.8918    0.9330   26.0422 H   0  0  0  0  0  0  0  0  0  0  0  0
   -1.0597   -3.2150   28.6958 H   0  0  0  0  0  0  0  0  0  0  0  0
    1.1979   -3.3375   30.3304 H   0  0  0  0  0  0  0  0  0  0  0  0
    1.1508   -3.6975   28.6313 H   0  0  0  0  0  0  0  0  0  0  0  0
    2.9151   -2.2118   29.0172 H   0  0  0  0  0  0  0  0  0  0  0  0
    0.7237   -1.3669   27.2865 H   0  0  0  0  0  0  0  0  0  0  0  0
    2.4760   -1.4264   27.0076 H   0  0  0  0  0  0  0  0  0  0  0  0
    2.8364    0.7219   27.7065 H   0  0  0  0  0  0  0  0  0  0  0  0
    1.1557    0.9590   27.2259 H   0  0  0  0  0  0  0  0  0  0  0  0
    1.9072    1.4460   29.6440 H   0  0  0  0  0  0  0  0  0  0  0  0
    3.0967   -0.3764   30.2057 H   0  0  0  0  0  0  0  0  0  0  0  0
    1.5651   -0.7210   30.9711 H   0  0  0  0  0  0  0  0  0  0  0  0
  1  2  2  0
  2  3  2  0
  2  4  1  0
  4  5  1  0
  5  6  1  0
  6  7  2  0
  7  8  1  0
  8  9  2  0
  9 10  1  0
 10 11  1  0
 10 12  2  0
  2 13  1  0
 13 14  1  0
 14 15  1  0
 15 16  1  0
 16 17  1  0
 17 18  1  0
 18 19  1  0
 12  6  1  0
 19 15  1  0
  4 20  1  0
  4 21  1  0
  5 22  1  0
  5 23  1  0
  7 24  1  0
  8 25  1  0
  9 26  1  0
 12 27  1  0
 13 28  1  0
 14 29  1  0
 14 30  1  0
 15 31  1  0
 16 32  1  0
 16 33  1  0
 17 34  1  0
 17 35  1  0
 18 36  1  0
 19 37  1  0
 19 38  1  0
M  END
>  <Energy>  (206) 
-33.898654216686339

>  <compound_id>  (206) 
39169

>  <target_id>  (206) 
1

>  <reference_id>  (206) 
13

>  <inspiration_ids>  (206) 
[13, 70]

>  <energy_score>  (206) 
-13.182782713597192

>  <distance_score>  (206) 
2.082991291403496

>  <path>  (206) 
/opt/xchem-fragalysis-2/maxwin/BulkDock/SCRATCH/511023/C39169-P13/C39169-P13.minimised.mol

>  <scratch_subdir>  (206) 
/opt/xchem-fragalysis-2/maxwin/BulkDock/SCRATCH/511023/C39169-P13

>  <fragmenstein_runtime>  (206) 
5.611429214477539

>  <fragmenstein_outcome>  (206) 
too moved

>  <fragmenstein_mode>  (206) 
expansion

>  <fragmenstein_error>  (206) 


$$$$
C39169-P70
     RDKit          3D

 38 39  0  0  0  0  0  0  0  0999 V2000
   -0.2055   -2.0305   31.6422 O   0  0  0  0  0  0  0  0  0  0  0  0
   -1.1969   -1.9631   30.5894 S   0  0  0  0  0  0  0  0  0  0  0  0
   -2.4682   -2.6261   30.7971 O   0  0  0  0  0  0  0  0  0  0  0  0
   -1.4778   -0.2239   30.0827 C   0  0  0  0  0  0  0  0  0  0  0  0
   -1.6713    0.0081   28.5479 C   0  0  0  0  0  0  0  0  0  0  0  0
   -1.6255    1.4294   27.9517 C   0  0  0  0  0  0  0  0  0  0  0  0
   -0.8202    2.4209   28.5206 C   0  0  0  0  0  0  0  0  0  0  0  0
   -0.7114    3.7017   27.9692 C   0  0  0  0  0  0  0  0  0  0  0  0
   -1.3723    4.0189   26.7954 C   0  0  0  0  0  0  0  0  0  0  0  0
   -2.1388    3.0539   26.1670 C   0  0  0  0  0  0  0  0  0  0  0  0
   -2.8964    3.5134   24.6946 Cl  0  0  0  0  0  0  0  0  0  0  0  0
   -2.2658    1.7675   26.7305 C   0  0  0  0  0  0  0  0  0  0  0  0
   -0.5509   -2.6588   29.2244 N   0  0  0  0  0  0  0  0  0  0  0  0
    0.8574   -3.0620   29.1989 C   0  0  0  0  0  0  0  0  0  0  0  0
    1.8644   -1.9843   28.7919 C   0  0  0  0  0  0  0  0  0  0  0  0
    1.5564   -1.3172   27.4657 C   0  0  0  0  0  0  0  0  0  0  0  0
    1.7707    0.1667   27.6822 C   0  0  0  0  0  0  0  0  0  0  0  0
    1.5655    0.3593   29.1121 N   0  0  0  0  0  0  0  0  0  0  0  0
    2.1237   -0.8281   29.7485 C   0  0  0  0  0  0  0  0  0  0  0  0
   -0.6277    0.3350   30.4755 H   0  0  0  0  0  0  0  0  0  0  0  0
   -2.3678    0.1111   30.6238 H   0  0  0  0  0  0  0  0  0  0  0  0
   -0.8992   -0.5268   28.0112 H   0  0  0  0  0  0  0  0  0  0  0  0
   -2.5886   -0.4894   28.2316 H   0  0  0  0  0  0  0  0  0  0  0  0
   -0.2425    2.2208   29.4185 H   0  0  0  0  0  0  0  0  0  0  0  0
   -0.1043    4.4552   28.4662 H   0  0  0  0  0  0  0  0  0  0  0  0
   -1.2876    5.0211   26.3830 H   0  0  0  0  0  0  0  0  0  0  0  0
   -2.8911    1.0292   26.2408 H   0  0  0  0  0  0  0  0  0  0  0  0
   -1.2107   -3.2322   28.6880 H   0  0  0  0  0  0  0  0  0  0  0  0
    1.1460   -3.5152   30.1539 H   0  0  0  0  0  0  0  0  0  0  0  0
    0.9268   -3.8800   28.4689 H   0  0  0  0  0  0  0  0  0  0  0  0
    2.8224   -2.5138   28.6810 H   0  0  0  0  0  0  0  0  0  0  0  0
    0.5420   -1.5352   27.1530 H   0  0  0  0  0  0  0  0  0  0  0  0
    2.2370   -1.6864   26.6922 H   0  0  0  0  0  0  0  0  0  0  0  0
    1.0976    0.7854   27.0880 H   0  0  0  0  0  0  0  0  0  0  0  0
    2.7986    0.4399   27.4140 H   0  0  0  0  0  0  0  0  0  0  0  0
    2.0644    1.1937   29.4204 H   0  0  0  0  0  0  0  0  0  0  0  0
    3.2075   -0.6896   29.8590 H   0  0  0  0  0  0  0  0  0  0  0  0
    1.7311   -0.9740   30.7532 H   0  0  0  0  0  0  0  0  0  0  0  0
  1  2  2  0
  2  3  2  0
  2  4  1  0
  4  5  1  0
  5  6  1  0
  6  7  2  0
  7  8  1  0
  8  9  2  0
  9 10  1  0
 10 11  1  0
 10 12  2  0
  2 13  1  0
 13 14  1  0
 14 15  1  0
 15 16  1  0
 16 17  1  0
 17 18  1  0
 18 19  1  0
 12  6  1  0
 19 15  1  0
  4 20  1  0
  4 21  1  0
  5 22  1  0
  5 23  1  0
  7 24  1  0
  8 25  1  0
  9 26  1  0
 12 27  1  0
 13 28  1  0
 14 29  1  0
 14 30  1  0
 15 31  1  0
 16 32  1  0
 16 33  1  0
 17 34  1  0
 17 35  1  0
 18 36  1  0
 19 37  1  0
 19 38  1  0
M  END
>  <Energy>  (207) 
-35.456767561575745

>  <compound_id>  (207) 
39169

>  <target_id>  (207) 
1

>  <reference_id>  (207) 
70

>  <inspiration_ids>  (207) 
[13, 70]

>  <energy_score>  (207) 
-14.740896058485816

>  <distance_score>  (207) 
2.2343329179110665

>  <path>  (207) 
/opt/xchem-fragalysis-2/maxwin/BulkDock/SCRATCH/511023/C39169-P70/C39169-P70.minimised.mol

>  <scratch_subdir>  (207) 
/opt/xchem-fragalysis-2/maxwin/BulkDock/SCRATCH/511023/C39169-P70

>  <fragmenstein_runtime>  (207) 
5.895690202713013

>  <fragmenstein_outcome>  (207) 
too moved

>  <fragmenstein_mode>  (207) 
expansion

>  <fragmenstein_error>  (207) 


$$$$
C46330-P13
     RDKit          3D

 45 47  0  0  0  0  0  0  0  0999 V2000
   -1.0770   -0.8696   31.0394 O   0  0  0  0  0  0  0  0  0  0  0  0
   -1.1214   -1.8167   29.9524 S   0  0  0  0  0  0  0  0  0  0  0  0
   -1.8671   -3.0433   30.1185 O   0  0  0  0  0  0  0  0  0  0  0  0
   -1.3604   -1.0709   28.3259 C   0  0  0  0  0  0  0  0  0  0  0  0
   -2.3222    0.0947   28.2146 C   0  0  0  0  0  0  0  0  0  0  0  0
   -2.3464    1.2076   27.1167 C   0  0  0  0  0  0  0  0  0  0  0  0
   -3.5498    1.8331   26.7371 C   0  0  0  0  0  0  0  0  0  0  0  0
   -3.6722    2.8272   25.7572 C   0  0  0  0  0  0  0  0  0  0  0  0
   -2.5612    3.3263   25.1333 C   0  0  0  0  0  0  0  0  0  0  0  0
   -1.3458    2.7844   25.4941 C   0  0  0  0  0  0  0  0  0  0  0  0
    0.0295    3.3937   24.6632 Cl  0  0  0  0  0  0  0  0  0  0  0  0
   -1.2462    1.7285   26.4494 C   0  0  0  0  0  0  0  0  0  0  0  0
    0.4697   -2.2846   29.6749 N   0  0  0  0  0  0  0  0  0  0  0  0
    1.5382   -1.3599   30.0790 C   0  0  0  0  0  0  0  0  0  0  0  0
    1.6894    0.0224   29.3766 C   0  0  0  0  0  0  0  0  0  0  0  0
    2.0037   -0.0669   27.8671 C   0  0  0  0  0  0  0  0  0  0  0  0
    2.2965    1.3334   27.3098 C   0  0  0  0  0  0  0  0  0  0  0  0
    2.2626    2.3779   28.3392 N   0  0  0  0  0  0  0  0  0  0  0  0
    3.2551    2.0351   29.3625 C   0  0  0  0  0  0  0  0  0  0  0  0
    2.9795    0.6577   29.9822 C   0  0  0  0  0  0  0  0  0  0  0  0
    0.9511    2.4533   28.9845 C   0  0  0  0  0  0  0  0  0  0  0  0
    0.6099    1.1191   29.6558 C   0  0  0  0  0  0  0  0  0  0  0  0
   -1.6625   -1.8925   27.6680 H   0  0  0  0  0  0  0  0  0  0  0  0
   -0.4121   -0.7503   27.9509 H   0  0  0  0  0  0  0  0  0  0  0  0
   -3.1564   -0.5230   27.9275 H   0  0  0  0  0  0  0  0  0  0  0  0
   -2.4947    0.5655   29.1851 H   0  0  0  0  0  0  0  0  0  0  0  0
   -4.4941    1.6008   27.1917 H   0  0  0  0  0  0  0  0  0  0  0  0
   -4.6537    3.1984   25.4874 H   0  0  0  0  0  0  0  0  0  0  0  0
   -2.6506    4.1095   24.3884 H   0  0  0  0  0  0  0  0  0  0  0  0
   -0.2852    1.2956   26.6592 H   0  0  0  0  0  0  0  0  0  0  0  0
    0.6018   -3.2642   29.9294 H   0  0  0  0  0  0  0  0  0  0  0  0
    2.4709   -1.9200   29.9209 H   0  0  0  0  0  0  0  0  0  0  0  0
    1.4808   -1.2232   31.1669 H   0  0  0  0  0  0  0  0  0  0  0  0
    2.8972   -0.6913   27.7250 H   0  0  0  0  0  0  0  0  0  0  0  0
    1.2424   -0.5442   27.2629 H   0  0  0  0  0  0  0  0  0  0  0  0
    3.2881    1.3250   26.8367 H   0  0  0  0  0  0  0  0  0  0  0  0
    1.6316    1.6144   26.5024 H   0  0  0  0  0  0  0  0  0  0  0  0
    4.2627    2.0506   28.9273 H   0  0  0  0  0  0  0  0  0  0  0  0
    3.2728    2.8026   30.1471 H   0  0  0  0  0  0  0  0  0  0  0  0
    2.8786    0.7654   31.0704 H   0  0  0  0  0  0  0  0  0  0  0  0
    3.8475    0.0065   29.8131 H   0  0  0  0  0  0  0  0  0  0  0  0
    0.9554    3.2499   29.7407 H   0  0  0  0  0  0  0  0  0  0  0  0
    0.1866    2.7673   28.2751 H   0  0  0  0  0  0  0  0  0  0  0  0
   -0.3750    0.8491   29.3356 H   0  0  0  0  0  0  0  0  0  0  0  0
    0.5379    1.2795   30.7401 H   0  0  0  0  0  0  0  0  0  0  0  0
  1  2  2  0
  2  3  2  0
  2  4  1  0
  4  5  1  0
  5  6  1  0
  6  7  2  0
  7  8  1  0
  8  9  2  0
  9 10  1  0
 10 11  1  0
 10 12  2  0
  2 13  1  0
 13 14  1  0
 14 15  1  0
 15 16  1  0
 16 17  1  0
 17 18  1  0
 18 19  1  0
 19 20  1  0
 18 21  1  0
 21 22  1  0
 12  6  1  0
 20 15  1  0
 22 15  1  0
  4 23  1  0
  4 24  1  0
  5 25  1  0
  5 26  1  0
  7 27  1  0
  8 28  1  0
  9 29  1  0
 12 30  1  0
 13 31  1  0
 14 32  1  0
 14 33  1  0
 16 34  1  0
 16 35  1  0
 17 36  1  0
 17 37  1  0
 19 38  1  0
 19 39  1  0
 20 40  1  0
 20 41  1  0
 21 42  1  0
 21 43  1  0
 22 44  1  0
 22 45  1  0
M  END
>  <Energy>  (208) 
8.3494209914702644

>  <compound_id>  (208) 
46330

>  <target_id>  (208) 
1

>  <reference_id>  (208) 
13

>  <inspiration_ids>  (208) 
[13, 70]

>  <energy_score>  (208) 
-23.780198466253495

>  <distance_score>  (208) 
2.9083607340773354

>  <path>  (208) 
/opt/xchem-fragalysis-2/maxwin/BulkDock/SCRATCH/511023/C46330-P13/C46330-P13.minimised.mol

>  <scratch_subdir>  (208) 
/opt/xchem-fragalysis-2/maxwin/BulkDock/SCRATCH/511023/C46330-P13

>  <fragmenstein_runtime>  (208) 
19.41347050666809

>  <fragmenstein_outcome>  (208) 
too moved

>  <fragmenstein_mode>  (208) 
expansion

>  <fragmenstein_error>  (208) 


$$$$
C46330-P70
     RDKit          3D

 45 47  0  0  0  0  0  0  0  0999 V2000
    0.0938   -3.0616   31.6725 O   0  0  0  0  0  0  0  0  0  0  0  0
   -0.8323   -2.4081   30.7731 S   0  0  0  0  0  0  0  0  0  0  0  0
   -2.1390   -2.9773   30.5367 O   0  0  0  0  0  0  0  0  0  0  0  0
   -1.0495   -0.7467   31.2950 C   0  0  0  0  0  0  0  0  0  0  0  0
   -1.8707    0.2205   30.4233 C   0  0  0  0  0  0  0  0  0  0  0  0
   -1.7585    0.6644   28.9396 C   0  0  0  0  0  0  0  0  0  0  0  0
   -2.1711   -0.2127   27.9599 C   0  0  0  0  0  0  0  0  0  0  0  0
   -2.4835    0.2819   26.6902 C   0  0  0  0  0  0  0  0  0  0  0  0
   -2.3758    1.6166   26.3187 C   0  0  0  0  0  0  0  0  0  0  0  0
   -1.7454    2.4576   27.1763 C   0  0  0  0  0  0  0  0  0  0  0  0
   -1.2870    3.9855   26.5404 Cl  0  0  0  0  0  0  0  0  0  0  0  0
   -1.4485    1.9898   28.4699 C   0  0  0  0  0  0  0  0  0  0  0  0
   -0.0616   -2.1722   29.3157 N   0  0  0  0  0  0  0  0  0  0  0  0
    1.3854   -1.9020   29.2913 C   0  0  0  0  0  0  0  0  0  0  0  0
    1.7841   -0.4823   28.8249 C   0  0  0  0  0  0  0  0  0  0  0  0
    1.2885   -0.1702   27.4199 C   0  0  0  0  0  0  0  0  0  0  0  0
    1.6664    1.2698   27.0239 C   0  0  0  0  0  0  0  0  0  0  0  0
    2.5962    1.8772   27.9757 N   0  0  0  0  0  0  0  0  0  0  0  0
    3.7398    0.9646   28.1363 C   0  0  0  0  0  0  0  0  0  0  0  0
    3.3261   -0.4024   28.7140 C   0  0  0  0  0  0  0  0  0  0  0  0
    1.9352    2.0381   29.2599 C   0  0  0  0  0  0  0  0  0  0  0  0
    1.4273    0.6876   29.7676 C   0  0  0  0  0  0  0  0  0  0  0  0
   -0.0645   -0.3556   31.5498 H   0  0  0  0  0  0  0  0  0  0  0  0
   -1.5643   -0.8283   32.2628 H   0  0  0  0  0  0  0  0  0  0  0  0
   -1.7338    1.1268   30.9990 H   0  0  0  0  0  0  0  0  0  0  0  0
   -2.9210   -0.0483   30.5671 H   0  0  0  0  0  0  0  0  0  0  0  0
   -2.3851   -1.2563   28.1740 H   0  0  0  0  0  0  0  0  0  0  0  0
   -2.9116   -0.4140   25.9943 H   0  0  0  0  0  0  0  0  0  0  0  0
   -2.7292    2.0022   25.3750 H   0  0  0  0  0  0  0  0  0  0  0  0
   -0.9410    2.7015   29.1082 H   0  0  0  0  0  0  0  0  0  0  0  0
   -0.4753   -2.6317   28.5012 H   0  0  0  0  0  0  0  0  0  0  0  0
    1.8330   -2.6503   28.6241 H   0  0  0  0  0  0  0  0  0  0  0  0
    1.8326   -2.0787   30.2755 H   0  0  0  0  0  0  0  0  0  0  0  0
    1.7824   -0.8818   26.7484 H   0  0  0  0  0  0  0  0  0  0  0  0
    0.2240   -0.3281   27.3081 H   0  0  0  0  0  0  0  0  0  0  0  0
    2.1773    1.3077   26.0579 H   0  0  0  0  0  0  0  0  0  0  0  0
    0.7870    1.8950   26.8964 H   0  0  0  0  0  0  0  0  0  0  0  0
    4.2425    0.8226   27.1706 H   0  0  0  0  0  0  0  0  0  0  0  0
    4.4950    1.4248   28.7861 H   0  0  0  0  0  0  0  0  0  0  0  0
    3.7867   -0.5401   29.7010 H   0  0  0  0  0  0  0  0  0  0  0  0
    3.7172   -1.2017   28.0713 H   0  0  0  0  0  0  0  0  0  0  0  0
    2.6384    2.4618   29.9893 H   0  0  0  0  0  0  0  0  0  0  0  0
    1.1389    2.7816   29.1909 H   0  0  0  0  0  0  0  0  0  0  0  0
    0.3746    0.7830   29.9053 H   0  0  0  0  0  0  0  0  0  0  0  0
    1.8591    0.5017   30.7597 H   0  0  0  0  0  0  0  0  0  0  0  0
  1  2  2  0
  2  3  2  0
  2  4  1  0
  4  5  1  0
  5  6  1  0
  6  7  2  0
  7  8  1  0
  8  9  2  0
  9 10  1  0
 10 11  1  0
 10 12  2  0
  2 13  1  0
 13 14  1  0
 14 15  1  0
 15 16  1  0
 16 17  1  0
 17 18  1  0
 18 19  1  0
 19 20  1  0
 18 21  1  0
 21 22  1  0
 12  6  1  0
 20 15  1  0
 22 15  1  0
  4 23  1  0
  4 24  1  0
  5 25  1  0
  5 26  1  0
  7 27  1  0
  8 28  1  0
  9 29  1  0
 12 30  1  0
 13 31  1  0
 14 32  1  0
 14 33  1  0
 16 34  1  0
 16 35  1  0
 17 36  1  0
 17 37  1  0
 19 38  1  0
 19 39  1  0
 20 40  1  0
 20 41  1  0
 21 42  1  0
 21 43  1  0
 22 44  1  0
 22 45  1  0
M  END
>  <Energy>  (209) 
6.9530891609199585

>  <compound_id>  (209) 
46330

>  <target_id>  (209) 
1

>  <reference_id>  (209) 
70

>  <inspiration_ids>  (209) 
[13, 70]

>  <energy_score>  (209) 
-25.176530296805424

>  <distance_score>  (209) 
2.973619694816354

>  <path>  (209) 
/opt/xchem-fragalysis-2/maxwin/BulkDock/SCRATCH/511023/C46330-P70/C46330-P70.minimised.mol

>  <scratch_subdir>  (209) 
/opt/xchem-fragalysis-2/maxwin/BulkDock/SCRATCH/511023/C46330-P70

>  <fragmenstein_runtime>  (209) 
24.83660888671875

>  <fragmenstein_outcome>  (209) 
too moved

>  <fragmenstein_mode>  (209) 
expansion

>  <fragmenstein_error>  (209) 


$$$$
C46332-P13
     RDKit          3D

 37 38  0  0  0  0  0  0  0  0999 V2000
   -2.1416   -0.6668   31.5982 C   0  0  0  0  0  0  0  0  0  0  0  0
   -0.8326   -1.3808   31.8368 C   0  0  0  0  0  0  0  0  0  0  0  0
   -0.8429   -3.0797   31.2766 S   0  0  0  0  0  0  0  0  0  0  0  0
    0.4203   -3.6830   31.6367 O   0  0  0  0  0  0  0  0  0  0  0  0
   -2.0953   -3.6914   31.6706 O   0  0  0  0  0  0  0  0  0  0  0  0
   -0.8919   -2.9875   29.6326 N   0  0  0  0  0  0  0  0  0  0  0  0
    0.1981   -2.3690   28.8872 C   0  0  0  0  0  0  0  0  0  0  0  0
   -0.2795   -1.0840   28.3235 C   0  0  0  0  0  0  0  0  0  0  0  0
   -1.5003   -0.7633   27.7703 C   0  0  0  0  0  0  0  0  0  0  0  0
   -1.3810    0.5501   27.4308 N   0  0  0  0  0  0  0  0  0  0  0  0
   -2.3982    1.3545   26.7988 C   0  0  0  0  0  0  0  0  0  0  0  0
   -2.2427    2.8607   26.8688 C   0  0  0  0  0  0  0  0  0  0  0  0
   -1.7877    3.2413   28.0895 F   0  0  0  0  0  0  0  0  0  0  0  0
   -1.2909    3.3440   25.8073 C   0  0  0  0  0  0  0  0  0  0  0  0
   -1.1044    4.8650   25.6679 C   0  0  0  0  0  0  0  0  0  0  0  0
   -1.1428    4.6710   24.1974 N   0  0  0  0  0  0  0  0  0  0  0  0
   -1.9383    3.4510   24.4083 C   0  0  0  0  0  0  0  0  0  0  0  0
   -0.1536    1.0113   27.7274 N   0  0  0  0  0  0  0  0  0  0  0  0
    0.5238    0.0240   28.2974 N   0  0  0  0  0  0  0  0  0  0  0  0
   -2.3632   -0.5678   30.5339 H   0  0  0  0  0  0  0  0  0  0  0  0
   -2.0889    0.3298   32.0378 H   0  0  0  0  0  0  0  0  0  0  0  0
   -2.9780   -1.1944   32.0670 H   0  0  0  0  0  0  0  0  0  0  0  0
    0.0073   -0.8642   31.3653 H   0  0  0  0  0  0  0  0  0  0  0  0
   -0.6302   -1.4239   32.9127 H   0  0  0  0  0  0  0  0  0  0  0  0
   -1.7613   -3.1824   29.1307 H   0  0  0  0  0  0  0  0  0  0  0  0
    0.4980   -3.0461   28.0836 H   0  0  0  0  0  0  0  0  0  0  0  0
    1.0798   -2.2083   29.5155 H   0  0  0  0  0  0  0  0  0  0  0  0
   -2.3901   -1.3435   27.5755 H   0  0  0  0  0  0  0  0  0  0  0  0
   -3.3258    1.1157   27.3007 H   0  0  0  0  0  0  0  0  0  0  0  0
   -2.4894    1.0054   25.7683 H   0  0  0  0  0  0  0  0  0  0  0  0
   -3.2245    3.3279   26.7405 H   0  0  0  0  0  0  0  0  0  0  0  0
   -0.3248    2.8223   25.7934 H   0  0  0  0  0  0  0  0  0  0  0  0
   -1.9222    5.4798   26.0489 H   0  0  0  0  0  0  0  0  0  0  0  0
   -0.1585    5.2602   26.0487 H   0  0  0  0  0  0  0  0  0  0  0  0
   -1.6202    5.4164   23.6903 H   0  0  0  0  0  0  0  0  0  0  0  0
   -3.0204    3.6306   24.3988 H   0  0  0  0  0  0  0  0  0  0  0  0
   -1.7122    2.6399   23.7123 H   0  0  0  0  0  0  0  0  0  0  0  0
  1  2  1  0
  2  3  1  0
  3  4  2  0
  3  5  2  0
  3  6  1  0
  6  7  1  0
  7  8  1  0
  8  9  2  0
  9 10  1  0
 10 11  1  0
 11 12  1  0
 12 13  1  0
 12 14  1  0
 14 15  1  0
 15 16  1  0
 16 17  1  0
 10 18  1  0
 18 19  2  0
 19  8  1  0
 17 14  1  0
  1 20  1  0
  1 21  1  0
  1 22  1  0
  2 23  1  0
  2 24  1  0
  6 25  1  0
  7 26  1  0
  7 27  1  0
  9 28  1  0
 11 29  1  0
 11 30  1  0
 12 31  1  0
 14 32  1  0
 15 33  1  0
 15 34  1  0
 16 35  1  0
 17 36  1  0
 17 37  1  0
M  END
>  <Energy>  (210) 
-71.187219929683508

>  <compound_id>  (210) 
46332

>  <target_id>  (210) 
1

>  <reference_id>  (210) 
13

>  <inspiration_ids>  (210) 
[13, 70]

>  <energy_score>  (210) 
-25.550249349175644

>  <distance_score>  (210) 
1.4063431308643022

>  <path>  (210) 
/opt/xchem-fragalysis-2/maxwin/BulkDock/SCRATCH/511023/C46332-P13/C46332-P13.minimised.mol

>  <scratch_subdir>  (210) 
/opt/xchem-fragalysis-2/maxwin/BulkDock/SCRATCH/511023/C46332-P13

>  <fragmenstein_runtime>  (210) 
6.827718019485474

>  <fragmenstein_outcome>  (210) 
too moved

>  <fragmenstein_mode>  (210) 
expansion

>  <fragmenstein_error>  (210) 


$$$$
C46332-P70
     RDKit          3D

 37 38  0  0  0  0  0  0  0  0999 V2000
   -2.0565   -0.5473   31.5371 C   0  0  0  0  0  0  0  0  0  0  0  0
   -0.7883   -1.3425   31.7476 C   0  0  0  0  0  0  0  0  0  0  0  0
   -0.8827   -3.0250   31.1366 S   0  0  0  0  0  0  0  0  0  0  0  0
    0.3462   -3.7013   31.4861 O   0  0  0  0  0  0  0  0  0  0  0  0
   -2.1702   -3.5830   31.5002 O   0  0  0  0  0  0  0  0  0  0  0  0
   -0.9192   -2.8787   29.4949 N   0  0  0  0  0  0  0  0  0  0  0  0
    0.2072   -2.3256   28.7451 C   0  0  0  0  0  0  0  0  0  0  0  0
   -0.2028   -0.9997   28.2147 C   0  0  0  0  0  0  0  0  0  0  0  0
   -1.4396   -0.5716   27.7803 C   0  0  0  0  0  0  0  0  0  0  0  0
   -1.2676    0.7564   27.5263 N   0  0  0  0  0  0  0  0  0  0  0  0
   -2.3373    1.7029   27.3181 C   0  0  0  0  0  0  0  0  0  0  0  0
   -1.9971    3.1651   27.1420 C   0  0  0  0  0  0  0  0  0  0  0  0
   -1.1816    3.5715   28.1531 F   0  0  0  0  0  0  0  0  0  0  0  0
   -1.3314    3.4607   25.8292 C   0  0  0  0  0  0  0  0  0  0  0  0
   -1.0139    4.9553   25.6156 C   0  0  0  0  0  0  0  0  0  0  0  0
   -1.4334    4.7788   24.2077 N   0  0  0  0  0  0  0  0  0  0  0  0
   -2.2882    3.6590   24.6323 C   0  0  0  0  0  0  0  0  0  0  0  0
    0.0100    1.1169   27.7192 N   0  0  0  0  0  0  0  0  0  0  0  0
    0.6722    0.0511   28.1507 N   0  0  0  0  0  0  0  0  0  0  0  0
   -2.2940   -0.4386   30.4780 H   0  0  0  0  0  0  0  0  0  0  0  0
   -1.9403    0.4519   31.9648 H   0  0  0  0  0  0  0  0  0  0  0  0
   -2.9110   -1.0251   32.0260 H   0  0  0  0  0  0  0  0  0  0  0  0
    0.0759   -0.8590   31.2842 H   0  0  0  0  0  0  0  0  0  0  0  0
   -0.5828   -1.4261   32.8204 H   0  0  0  0  0  0  0  0  0  0  0  0
   -1.7341   -3.2004   28.9700 H   0  0  0  0  0  0  0  0  0  0  0  0
    0.4579   -3.0039   27.9251 H   0  0  0  0  0  0  0  0  0  0  0  0
    1.0975   -2.2246   29.3734 H   0  0  0  0  0  0  0  0  0  0  0  0
   -2.3916   -1.0719   27.6937 H   0  0  0  0  0  0  0  0  0  0  0  0
   -2.8875    1.6598   28.2547 H   0  0  0  0  0  0  0  0  0  0  0  0
   -2.9608    1.3297   26.5005 H   0  0  0  0  0  0  0  0  0  0  0  0
   -2.9146    3.7540   27.2404 H   0  0  0  0  0  0  0  0  0  0  0  0
   -0.4707    2.8209   25.5936 H   0  0  0  0  0  0  0  0  0  0  0  0
   -1.6418    5.6574   26.1762 H   0  0  0  0  0  0  0  0  0  0  0  0
    0.0345    5.2375   25.7466 H   0  0  0  0  0  0  0  0  0  0  0  0
   -1.9316    5.5776   23.8134 H   0  0  0  0  0  0  0  0  0  0  0  0
   -3.3118    3.9581   24.8873 H   0  0  0  0  0  0  0  0  0  0  0  0
   -2.3252    2.8515   23.9037 H   0  0  0  0  0  0  0  0  0  0  0  0
  1  2  1  0
  2  3  1  0
  3  4  2  0
  3  5  2  0
  3  6  1  0
  6  7  1  0
  7  8  1  0
  8  9  2  0
  9 10  1  0
 10 11  1  0
 11 12  1  0
 12 13  1  0
 12 14  1  0
 14 15  1  0
 15 16  1  0
 16 17  1  0
 10 18  1  0
 18 19  2  0
 19  8  1  0
 17 14  1  0
  1 20  1  0
  1 21  1  0
  1 22  1  0
  2 23  1  0
  2 24  1  0
  6 25  1  0
  7 26  1  0
  7 27  1  0
  9 28  1  0
 11 29  1  0
 11 30  1  0
 12 31  1  0
 14 32  1  0
 15 33  1  0
 15 34  1  0
 16 35  1  0
 17 36  1  0
 17 37  1  0
M  END
>  <Energy>  (211) 
-69.986341797353134

>  <compound_id>  (211) 
46332

>  <target_id>  (211) 
1

>  <reference_id>  (211) 
70

>  <inspiration_ids>  (211) 
[13, 70]

>  <energy_score>  (211) 
-24.349371216846038

>  <distance_score>  (211) 
1.4848243220000215

>  <path>  (211) 
/opt/xchem-fragalysis-2/maxwin/BulkDock/SCRATCH/511023/C46332-P70/C46332-P70.minimised.mol

>  <scratch_subdir>  (211) 
/opt/xchem-fragalysis-2/maxwin/BulkDock/SCRATCH/511023/C46332-P70

>  <fragmenstein_runtime>  (211) 
7.106020927429199

>  <fragmenstein_outcome>  (211) 
too moved

>  <fragmenstein_mode>  (211) 
expansion

>  <fragmenstein_error>  (211) 


$$$$
C46333-P13
     RDKit          3D

 44 45  0  0  0  0  0  0  0  0999 V2000
    1.8175    5.9756   24.6482 C   0  0  0  0  0  0  0  0  0  0  0  0
    2.6996    5.1117   25.5357 C   0  0  0  0  0  0  0  0  0  0  0  0
    3.1047    3.5701   24.7269 S   0  0  0  0  0  0  0  0  0  0  0  0
    1.9099    2.7633   24.7553 O   0  0  0  0  0  0  0  0  0  0  0  0
    3.7276    3.8970   23.4597 O   0  0  0  0  0  0  0  0  0  0  0  0
    4.3435    2.8969   25.7620 N   0  0  0  0  0  0  0  0  0  0  0  0
    5.3249    2.0775   25.0028 C   0  0  0  0  0  0  0  0  0  0  0  0
    3.8033    2.2605   26.9449 C   0  0  0  0  0  0  0  0  0  0  0  0
    3.6120    3.0642   28.0720 C   0  0  0  0  0  0  0  0  0  0  0  0
    2.5826    2.7691   28.9572 C   0  0  0  0  0  0  0  0  0  0  0  0
    1.7201    1.7407   28.5884 C   0  0  0  0  0  0  0  0  0  0  0  0
    0.4130    2.1774   28.4135 N   0  0  0  0  0  0  0  0  0  0  0  0
   -0.6320    1.7117   27.5165 C   0  0  0  0  0  0  0  0  0  0  0  0
   -0.6512    0.8019   26.7793 O   0  0  0  0  0  0  0  0  0  0  0  0
   -1.5986    2.7551   27.7306 N   0  0  0  0  0  0  0  0  0  0  0  0
   -1.2955    3.9568   26.8129 C   0  0  0  0  0  0  0  0  0  0  0  0
   -1.3085    3.7852   25.2774 C   0  0  0  0  0  0  0  0  0  0  0  0
   -2.6655    3.5924   24.7920 N   0  0  0  0  0  0  0  0  0  0  0  0
   -3.2574    2.6111   25.6941 C   0  0  0  0  0  0  0  0  0  0  0  0
   -2.9586    2.9394   27.1685 C   0  0  0  0  0  0  0  0  0  0  0  0
    2.1457    0.7229   27.7365 C   0  0  0  0  0  0  0  0  0  0  0  0
    3.1830    1.0120   26.8623 C   0  0  0  0  0  0  0  0  0  0  0  0
    1.4290    6.8299   25.2102 H   0  0  0  0  0  0  0  0  0  0  0  0
    2.3929    6.3639   23.8010 H   0  0  0  0  0  0  0  0  0  0  0  0
    0.9809    5.4127   24.2340 H   0  0  0  0  0  0  0  0  0  0  0  0
    3.6348    5.6316   25.7616 H   0  0  0  0  0  0  0  0  0  0  0  0
    2.1732    4.8761   26.4631 H   0  0  0  0  0  0  0  0  0  0  0  0
    4.8337    1.3104   24.3997 H   0  0  0  0  0  0  0  0  0  0  0  0
    5.9211    2.7250   24.3525 H   0  0  0  0  0  0  0  0  0  0  0  0
    6.0216    1.5869   25.6913 H   0  0  0  0  0  0  0  0  0  0  0  0
    4.1446    4.0067   28.1659 H   0  0  0  0  0  0  0  0  0  0  0  0
    2.2884    3.5217   29.6838 H   0  0  0  0  0  0  0  0  0  0  0  0
    0.0575    2.9468   28.9650 H   0  0  0  0  0  0  0  0  0  0  0  0
   -1.8017    4.8769   27.1494 H   0  0  0  0  0  0  0  0  0  0  0  0
   -0.2454    4.1986   27.0379 H   0  0  0  0  0  0  0  0  0  0  0  0
   -0.9102    4.6862   24.8080 H   0  0  0  0  0  0  0  0  0  0  0  0
   -0.6797    2.9464   24.9691 H   0  0  0  0  0  0  0  0  0  0  0  0
   -3.1834    4.4689   24.8935 H   0  0  0  0  0  0  0  0  0  0  0  0
   -4.3421    2.5906   25.5443 H   0  0  0  0  0  0  0  0  0  0  0  0
   -2.8722    1.6138   25.4613 H   0  0  0  0  0  0  0  0  0  0  0  0
   -3.4780    2.1138   27.6606 H   0  0  0  0  0  0  0  0  0  0  0  0
   -3.4268    3.8525   27.5364 H   0  0  0  0  0  0  0  0  0  0  0  0
    1.5009   -0.1243   27.5074 H   0  0  0  0  0  0  0  0  0  0  0  0
    3.3339    0.3634   26.0036 H   0  0  0  0  0  0  0  0  0  0  0  0
  1  2  1  0
  2  3  1  0
  3  4  2  0
  3  5  2  0
  3  6  1  0
  6  7  1  0
  6  8  1  0
  8  9  2  0
  9 10  1  0
 10 11  2  0
 11 12  1  0
 12 13  1  0
 13 14  2  0
 13 15  1  0
 15 16  1  0
 16 17  1  0
 17 18  1  0
 18 19  1  0
 19 20  1  0
 11 21  1  0
 21 22  2  0
 22  8  1  0
 20 15  1  0
  1 23  1  0
  1 24  1  0
  1 25  1  0
  2 26  1  0
  2 27  1  0
  7 28  1  0
  7 29  1  0
  7 30  1  0
  9 31  1  0
 10 32  1  0
 12 33  1  0
 16 34  1  0
 16 35  1  0
 17 36  1  0
 17 37  1  0
 18 38  1  0
 19 39  1  0
 19 40  1  0
 20 41  1  0
 20 42  1  0
 21 43  1  0
 22 44  1  0
M  END
>  <Energy>  (212) 
84.206280963567067

>  <compound_id>  (212) 
46333

>  <target_id>  (212) 
1

>  <reference_id>  (212) 
13

>  <inspiration_ids>  (212) 
[13, 70]

>  <energy_score>  (212) 
49.980435299275086

>  <distance_score>  (212) 
4.4746838560063305

>  <path>  (212) 
/opt/xchem-fragalysis-2/maxwin/BulkDock/SCRATCH/511023/C46333-P13/C46333-P13.minimised.mol

>  <scratch_subdir>  (212) 
/opt/xchem-fragalysis-2/maxwin/BulkDock/SCRATCH/511023/C46333-P13

>  <fragmenstein_runtime>  (212) 
13.15919303894043

>  <fragmenstein_outcome>  (212) 
too moved

>  <fragmenstein_mode>  (212) 
expansion

>  <fragmenstein_error>  (212) 


$$$$
C46333-P70
     RDKit          3D

 44 45  0  0  0  0  0  0  0  0999 V2000
   -3.1435    4.6850   23.2626 C   0  0  0  0  0  0  0  0  0  0  0  0
   -2.7811    4.5478   24.7270 C   0  0  0  0  0  0  0  0  0  0  0  0
   -1.3174    3.5550   24.9614 S   0  0  0  0  0  0  0  0  0  0  0  0
   -0.1637    4.3245   24.5452 O   0  0  0  0  0  0  0  0  0  0  0  0
   -1.5927    2.2615   24.3602 O   0  0  0  0  0  0  0  0  0  0  0  0
   -1.2775    3.4172   26.6552 N   0  0  0  0  0  0  0  0  0  0  0  0
   -0.8599    4.6231   27.3984 C   0  0  0  0  0  0  0  0  0  0  0  0
   -1.0410    2.1304   27.2551 C   0  0  0  0  0  0  0  0  0  0  0  0
   -1.9579    1.1005   27.0629 C   0  0  0  0  0  0  0  0  0  0  0  0
   -1.7654   -0.1440   27.6674 C   0  0  0  0  0  0  0  0  0  0  0  0
   -0.6862   -0.3578   28.5175 C   0  0  0  0  0  0  0  0  0  0  0  0
   -0.5968   -1.5856   29.1644 N   0  0  0  0  0  0  0  0  0  0  0  0
    0.2146   -2.0086   30.3068 C   0  0  0  0  0  0  0  0  0  0  0  0
    1.0463   -1.4329   30.9077 O   0  0  0  0  0  0  0  0  0  0  0  0
   -0.3573   -3.3433   30.5206 N   0  0  0  0  0  0  0  0  0  0  0  0
    0.4358   -4.3883   29.7261 C   0  0  0  0  0  0  0  0  0  0  0  0
    1.9515   -4.5503   30.0094 C   0  0  0  0  0  0  0  0  0  0  0  0
    2.1745   -5.1636   31.3186 N   0  0  0  0  0  0  0  0  0  0  0  0
    1.2786   -4.4733   32.2442 C   0  0  0  0  0  0  0  0  0  0  0  0
   -0.1381   -4.3366   31.6369 C   0  0  0  0  0  0  0  0  0  0  0  0
    0.2441    0.6584   28.7033 C   0  0  0  0  0  0  0  0  0  0  0  0
    0.0790    1.8892   28.0556 C   0  0  0  0  0  0  0  0  0  0  0  0
   -3.3592    3.7115   22.8136 H   0  0  0  0  0  0  0  0  0  0  0  0
   -4.0312    5.3145   23.1478 H   0  0  0  0  0  0  0  0  0  0  0  0
   -2.3249    5.1396   22.6956 H   0  0  0  0  0  0  0  0  0  0  0  0
   -2.5849    5.5346   25.1492 H   0  0  0  0  0  0  0  0  0  0  0  0
   -3.5953    4.0584   25.2678 H   0  0  0  0  0  0  0  0  0  0  0  0
    0.1989    4.8394   27.2268 H   0  0  0  0  0  0  0  0  0  0  0  0
   -1.0139    4.4821   28.4704 H   0  0  0  0  0  0  0  0  0  0  0  0
   -1.4557    5.4903   27.1047 H   0  0  0  0  0  0  0  0  0  0  0  0
   -2.8450    1.2636   26.4580 H   0  0  0  0  0  0  0  0  0  0  0  0
   -2.4878   -0.9357   27.4949 H   0  0  0  0  0  0  0  0  0  0  0  0
   -1.2741   -2.3077   28.9529 H   0  0  0  0  0  0  0  0  0  0  0  0
   -0.0927   -5.3518   29.6278 H   0  0  0  0  0  0  0  0  0  0  0  0
    0.3966   -4.0067   28.6935 H   0  0  0  0  0  0  0  0  0  0  0  0
    2.4685   -3.5860   29.9542 H   0  0  0  0  0  0  0  0  0  0  0  0
    2.3918   -5.1934   29.2429 H   0  0  0  0  0  0  0  0  0  0  0  0
    1.9200   -6.1496   31.2742 H   0  0  0  0  0  0  0  0  0  0  0  0
    1.6884   -3.4888   32.4969 H   0  0  0  0  0  0  0  0  0  0  0  0
    1.2245   -5.0442   33.1777 H   0  0  0  0  0  0  0  0  0  0  0  0
   -0.7237   -3.8749   32.4470 H   0  0  0  0  0  0  0  0  0  0  0  0
   -0.6619   -5.2965   31.4929 H   0  0  0  0  0  0  0  0  0  0  0  0
    1.1139    0.5097   29.3380 H   0  0  0  0  0  0  0  0  0  0  0  0
    0.8330    2.6566   28.2052 H   0  0  0  0  0  0  0  0  0  0  0  0
  1  2  1  0
  2  3  1  0
  3  4  2  0
  3  5  2  0
  3  6  1  0
  6  7  1  0
  6  8  1  0
  8  9  2  0
  9 10  1  0
 10 11  2  0
 11 12  1  0
 12 13  1  0
 13 14  2  0
 13 15  1  0
 15 16  1  0
 16 17  1  0
 17 18  1  0
 18 19  1  0
 19 20  1  0
 11 21  1  0
 21 22  2  0
 22  8  1  0
 20 15  1  0
  1 23  1  0
  1 24  1  0
  1 25  1  0
  2 26  1  0
  2 27  1  0
  7 28  1  0
  7 29  1  0
  7 30  1  0
  9 31  1  0
 10 32  1  0
 12 33  1  0
 16 34  1  0
 16 35  1  0
 17 36  1  0
 17 37  1  0
 18 38  1  0
 19 39  1  0
 19 40  1  0
 20 41  1  0
 20 42  1  0
 21 43  1  0
 22 44  1  0
M  END
>  <Energy>  (213) 
43.713165421631835

>  <compound_id>  (213) 
46333

>  <target_id>  (213) 
1

>  <reference_id>  (213) 
70

>  <inspiration_ids>  (213) 
[13, 70]

>  <energy_score>  (213) 
9.487319757339662

>  <distance_score>  (213) 
3.7443363904328972

>  <path>  (213) 
/opt/xchem-fragalysis-2/maxwin/BulkDock/SCRATCH/511023/C46333-P70/C46333-P70.minimised.mol

>  <scratch_subdir>  (213) 
/opt/xchem-fragalysis-2/maxwin/BulkDock/SCRATCH/511023/C46333-P70

>  <fragmenstein_runtime>  (213) 
15.436009883880615

>  <fragmenstein_outcome>  (213) 
too moved

>  <fragmenstein_mode>  (213) 
expansion

>  <fragmenstein_error>  (213) 


$$$$
C46334-P13
     RDKit          3D

 45 46  0  0  0  0  0  0  0  0999 V2000
   -2.6101    4.2578   24.4410 C   0  0  0  0  0  0  0  0  0  0  0  0
   -1.7338    3.1100   24.9120 C   0  0  0  0  0  0  0  0  0  0  0  0
   -2.0984    2.6466   26.6012 S   0  0  0  0  0  0  0  0  0  0  0  0
   -1.5195    3.6573   27.4568 O   0  0  0  0  0  0  0  0  0  0  0  0
   -3.4968    2.2915   26.6274 O   0  0  0  0  0  0  0  0  0  0  0  0
   -1.2339    1.1692   26.7811 N   0  0  0  0  0  0  0  0  0  0  0  0
   -2.0891   -0.0358   26.6955 C   0  0  0  0  0  0  0  0  0  0  0  0
   -0.2972    1.0824   27.8649 C   0  0  0  0  0  0  0  0  0  0  0  0
    0.9940    1.5605   27.6827 C   0  0  0  0  0  0  0  0  0  0  0  0
    1.9250    1.4622   28.7137 C   0  0  0  0  0  0  0  0  0  0  0  0
    1.5606    0.8993   29.9341 C   0  0  0  0  0  0  0  0  0  0  0  0
    2.4625    0.7871   30.9877 N   0  0  0  0  0  0  0  0  0  0  0  0
    3.9360    1.2880   31.1182 C   0  0  0  0  0  0  0  0  0  0  0  0
    4.6347    1.8007   30.3317 O   0  0  0  0  0  0  0  0  0  0  0  0
    4.3591    0.9091   32.5653 C   0  0  0  0  0  0  0  0  0  0  0  0
    5.6938    1.5434   32.9553 C   0  0  0  0  0  0  0  0  0  0  0  0
    6.1551    1.0643   34.3321 C   0  0  0  0  0  0  0  0  0  0  0  0
    4.9904    0.6156   35.2135 C   0  0  0  0  0  0  0  0  0  0  0  0
    3.7241    1.4048   34.9010 C   0  0  0  0  0  0  0  0  0  0  0  0
    3.2637    1.2616   33.5123 N   0  0  0  0  0  0  0  0  0  0  0  0
    0.2557    0.4396   30.1204 C   0  0  0  0  0  0  0  0  0  0  0  0
   -0.6748    0.5412   29.0961 C   0  0  0  0  0  0  0  0  0  0  0  0
   -2.3868    4.5008   23.3976 H   0  0  0  0  0  0  0  0  0  0  0  0
   -3.6724    4.0047   24.5114 H   0  0  0  0  0  0  0  0  0  0  0  0
   -2.4338    5.1531   25.0440 H   0  0  0  0  0  0  0  0  0  0  0  0
   -0.6735    3.3696   24.8537 H   0  0  0  0  0  0  0  0  0  0  0  0
   -1.9368    2.2467   24.2818 H   0  0  0  0  0  0  0  0  0  0  0  0
   -2.5931   -0.0841   25.7422 H   0  0  0  0  0  0  0  0  0  0  0  0
   -1.5049   -0.9431   26.8530 H   0  0  0  0  0  0  0  0  0  0  0  0
   -2.8312   -0.0285   27.4864 H   0  0  0  0  0  0  0  0  0  0  0  0
    1.2882    2.0158   26.7431 H   0  0  0  0  0  0  0  0  0  0  0  0
    2.9303    1.8390   28.5468 H   0  0  0  0  0  0  0  0  0  0  0  0
    2.1308    0.4641   31.8949 H   0  0  0  0  0  0  0  0  0  0  0  0
    4.4727   -0.1836   32.5634 H   0  0  0  0  0  0  0  0  0  0  0  0
    6.4692    1.3192   32.2128 H   0  0  0  0  0  0  0  0  0  0  0  0
    5.5930    2.6372   32.9634 H   0  0  0  0  0  0  0  0  0  0  0  0
    6.7084    1.8738   34.8230 H   0  0  0  0  0  0  0  0  0  0  0  0
    6.8597    0.2311   34.2237 H   0  0  0  0  0  0  0  0  0  0  0  0
    5.2607    0.7324   36.2691 H   0  0  0  0  0  0  0  0  0  0  0  0
    4.8022   -0.4545   35.0577 H   0  0  0  0  0  0  0  0  0  0  0  0
    3.9055    2.4669   35.1094 H   0  0  0  0  0  0  0  0  0  0  0  0
    2.9150    1.0872   35.5672 H   0  0  0  0  0  0  0  0  0  0  0  0
    2.8804    2.1696   33.2291 H   0  0  0  0  0  0  0  0  0  0  0  0
   -0.0475    0.0058   31.0686 H   0  0  0  0  0  0  0  0  0  0  0  0
   -1.6875    0.2018   29.2832 H   0  0  0  0  0  0  0  0  0  0  0  0
  1  2  1  0
  2  3  1  0
  3  4  2  0
  3  5  2  0
  3  6  1  0
  6  7  1  0
  6  8  1  0
  8  9  2  0
  9 10  1  0
 10 11  2  0
 11 12  1  0
 12 13  1  0
 13 14  2  0
 13 15  1  0
 15 16  1  0
 16 17  1  0
 17 18  1  0
 18 19  1  0
 19 20  1  0
 11 21  1  0
 21 22  2  0
 22  8  1  0
 20 15  1  0
  1 23  1  0
  1 24  1  0
  1 25  1  0
  2 26  1  0
  2 27  1  0
  7 28  1  0
  7 29  1  0
  7 30  1  0
  9 31  1  0
 10 32  1  0
 12 33  1  0
 15 34  1  0
 16 35  1  0
 16 36  1  0
 17 37  1  0
 17 38  1  0
 18 39  1  0
 18 40  1  0
 19 41  1  0
 19 42  1  0
 20 43  1  0
 21 44  1  0
 22 45  1  0
M  END
>  <Energy>  (214) 
22.343403466461062

>  <compound_id>  (214) 
46334

>  <target_id>  (214) 
1

>  <reference_id>  (214) 
13

>  <inspiration_ids>  (214) 
[13, 70]

>  <energy_score>  (214) 
-21.204462859506236

>  <distance_score>  (214) 
3.8222636123196025

>  <path>  (214) 
/opt/xchem-fragalysis-2/maxwin/BulkDock/SCRATCH/511023/C46334-P13/C46334-P13.minimised.mol

>  <scratch_subdir>  (214) 
/opt/xchem-fragalysis-2/maxwin/BulkDock/SCRATCH/511023/C46334-P13

>  <fragmenstein_runtime>  (214) 
21.378650188446045

>  <fragmenstein_outcome>  (214) 
too moved

>  <fragmenstein_mode>  (214) 
expansion

>  <fragmenstein_error>  (214) 


$$$$
C46334-P70
     RDKit          3D

 45 46  0  0  0  0  0  0  0  0999 V2000
    1.2589    4.1241   24.8320 C   0  0  0  0  0  0  0  0  0  0  0  0
    1.5221    2.7752   25.4750 C   0  0  0  0  0  0  0  0  0  0  0  0
    2.3350    2.9003   27.0820 S   0  0  0  0  0  0  0  0  0  0  0  0
    2.1386    4.2468   27.5833 O   0  0  0  0  0  0  0  0  0  0  0  0
    3.6821    2.3929   26.9120 O   0  0  0  0  0  0  0  0  0  0  0  0
    1.4945    1.7990   28.1327 N   0  0  0  0  0  0  0  0  0  0  0  0
    1.9917    0.4097   28.1169 C   0  0  0  0  0  0  0  0  0  0  0  0
    0.0689    2.0294   28.1997 C   0  0  0  0  0  0  0  0  0  0  0  0
   -0.3405    3.3060   28.5808 C   0  0  0  0  0  0  0  0  0  0  0  0
   -1.3741    3.9208   27.8865 C   0  0  0  0  0  0  0  0  0  0  0  0
   -1.9742    3.2207   26.8522 C   0  0  0  0  0  0  0  0  0  0  0  0
   -2.3185    3.9671   25.7350 N   0  0  0  0  0  0  0  0  0  0  0  0
   -2.2934    3.6365   24.3343 C   0  0  0  0  0  0  0  0  0  0  0  0
   -2.0435    2.5994   23.7753 O   0  0  0  0  0  0  0  0  0  0  0  0
   -2.5493    4.9231   23.4868 C   0  0  0  0  0  0  0  0  0  0  0  0
   -3.8663    4.8262   22.7266 C   0  0  0  0  0  0  0  0  0  0  0  0
   -4.2994    6.1603   22.1093 C   0  0  0  0  0  0  0  0  0  0  0  0
   -3.1477    7.1581   22.0654 C   0  0  0  0  0  0  0  0  0  0  0  0
   -2.5067    7.3495   23.4464 C   0  0  0  0  0  0  0  0  0  0  0  0
   -2.5521    6.1601   24.3123 N   0  0  0  0  0  0  0  0  0  0  0  0
   -1.8404    1.8384   26.7729 C   0  0  0  0  0  0  0  0  0  0  0  0
   -0.7995    1.2246   27.4607 C   0  0  0  0  0  0  0  0  0  0  0  0
    2.1923    4.6817   24.7044 H   0  0  0  0  0  0  0  0  0  0  0  0
    0.5857    4.7342   25.4407 H   0  0  0  0  0  0  0  0  0  0  0  0
    0.8046    3.9923   23.8454 H   0  0  0  0  0  0  0  0  0  0  0  0
    2.1887    2.1843   24.8404 H   0  0  0  0  0  0  0  0  0  0  0  0
    0.5871    2.2408   25.5669 H   0  0  0  0  0  0  0  0  0  0  0  0
    1.9429   -0.0260   27.1180 H   0  0  0  0  0  0  0  0  0  0  0  0
    1.4077   -0.2145   28.8017 H   0  0  0  0  0  0  0  0  0  0  0  0
    3.0264    0.3809   28.4721 H   0  0  0  0  0  0  0  0  0  0  0  0
    0.2836    3.9221   29.2265 H   0  0  0  0  0  0  0  0  0  0  0  0
   -1.5153    4.9927   28.0040 H   0  0  0  0  0  0  0  0  0  0  0  0
   -2.4898    4.9679   25.8366 H   0  0  0  0  0  0  0  0  0  0  0  0
   -1.6980    4.9721   22.7936 H   0  0  0  0  0  0  0  0  0  0  0  0
   -3.7844    4.0681   21.9411 H   0  0  0  0  0  0  0  0  0  0  0  0
   -4.6482    4.4753   23.4023 H   0  0  0  0  0  0  0  0  0  0  0  0
   -5.1193    6.5843   22.7014 H   0  0  0  0  0  0  0  0  0  0  0  0
   -4.6991    5.9950   21.1025 H   0  0  0  0  0  0  0  0  0  0  0  0
   -3.4991    8.1228   21.6824 H   0  0  0  0  0  0  0  0  0  0  0  0
   -2.3903    6.7959   21.3583 H   0  0  0  0  0  0  0  0  0  0  0  0
   -1.4637    7.6609   23.3183 H   0  0  0  0  0  0  0  0  0  0  0  0
   -3.0089    8.1706   23.9716 H   0  0  0  0  0  0  0  0  0  0  0  0
   -3.4409    6.2160   24.8294 H   0  0  0  0  0  0  0  0  0  0  0  0
   -2.4088    1.2722   26.0470 H   0  0  0  0  0  0  0  0  0  0  0  0
   -0.5586    0.1927   27.2263 H   0  0  0  0  0  0  0  0  0  0  0  0
  1  2  1  0
  2  3  1  0
  3  4  2  0
  3  5  2  0
  3  6  1  0
  6  7  1  0
  6  8  1  0
  8  9  2  0
  9 10  1  0
 10 11  2  0
 11 12  1  0
 12 13  1  0
 13 14  2  0
 13 15  1  0
 15 16  1  0
 16 17  1  0
 17 18  1  0
 18 19  1  0
 19 20  1  0
 11 21  1  0
 21 22  2  0
 22  8  1  0
 20 15  1  0
  1 23  1  0
  1 24  1  0
  1 25  1  0
  2 26  1  0
  2 27  1  0
  7 28  1  0
  7 29  1  0
  7 30  1  0
  9 31  1  0
 10 32  1  0
 12 33  1  0
 15 34  1  0
 16 35  1  0
 16 36  1  0
 17 37  1  0
 17 38  1  0
 18 39  1  0
 18 40  1  0
 19 41  1  0
 19 42  1  0
 20 43  1  0
 21 44  1  0
 22 45  1  0
M  END
>  <Energy>  (215) 
45.504875030965025

>  <compound_id>  (215) 
46334

>  <target_id>  (215) 
1

>  <reference_id>  (215) 
70

>  <inspiration_ids>  (215) 
[13, 70]

>  <energy_score>  (215) 
-35.52660409606506

>  <distance_score>  (215) 
3.4810332197239013

>  <path>  (215) 
/opt/xchem-fragalysis-2/maxwin/BulkDock/SCRATCH/511023/C46334-P70/C46334-P70.minimised.mol

>  <scratch_subdir>  (215) 
/opt/xchem-fragalysis-2/maxwin/BulkDock/SCRATCH/511023/C46334-P70

>  <fragmenstein_runtime>  (215) 
14.614269495010376

>  <fragmenstein_outcome>  (215) 
too moved

>  <fragmenstein_mode>  (215) 
expansion

>  <fragmenstein_error>  (215) 


$$$$
C46335-P13
     RDKit          3D

 46 48  0  0  0  0  0  0  0  0999 V2000
    5.0010   -3.2173   27.0401 C   0  0  0  0  0  0  0  0  0  0  0  0
    4.7144   -4.1558   28.1950 C   0  0  0  0  0  0  0  0  0  0  0  0
    3.0554   -4.8447   28.1574 S   0  0  0  0  0  0  0  0  0  0  0  0
    3.1649   -6.1984   28.6693 O   0  0  0  0  0  0  0  0  0  0  0  0
    2.4910   -4.6162   26.8428 O   0  0  0  0  0  0  0  0  0  0  0  0
    2.2117   -3.9368   29.3195 N   0  0  0  0  0  0  0  0  0  0  0  0
    2.5017   -4.1937   30.7393 C   0  0  0  0  0  0  0  0  0  0  0  0
    1.7652   -2.6220   28.9750 C   0  0  0  0  0  0  0  0  0  0  0  0
    2.6132   -1.5193   29.0908 C   0  0  0  0  0  0  0  0  0  0  0  0
    2.1760   -0.2557   28.6935 C   0  0  0  0  0  0  0  0  0  0  0  0
    0.8799   -0.0870   28.2049 C   0  0  0  0  0  0  0  0  0  0  0  0
    0.5132    1.1743   27.7526 N   0  0  0  0  0  0  0  0  0  0  0  0
   -0.7414    1.6641   27.2175 C   0  0  0  0  0  0  0  0  0  0  0  0
   -1.8065    1.1256   27.1023 O   0  0  0  0  0  0  0  0  0  0  0  0
   -0.5549    3.1429   26.8053 C   0  0  0  0  0  0  0  0  0  0  0  0
    0.4908    3.4523   25.7305 C   0  0  0  0  0  0  0  0  0  0  0  0
    0.0254    4.8086   25.1883 C   0  0  0  0  0  0  0  0  0  0  0  0
   -1.2358    5.0828   26.0069 C   0  0  0  0  0  0  0  0  0  0  0  0
   -0.8547    5.4204   27.4495 C   0  0  0  0  0  0  0  0  0  0  0  0
   -0.3587    4.0845   27.9954 C   0  0  0  0  0  0  0  0  0  0  0  0
   -1.7477    3.7145   26.1334 N   0  0  0  0  0  0  0  0  0  0  0  0
    0.0129   -1.1773   28.1506 C   0  0  0  0  0  0  0  0  0  0  0  0
    0.4574   -2.4469   28.5296 C   0  0  0  0  0  0  0  0  0  0  0  0
    6.0052   -2.7943   27.1384 H   0  0  0  0  0  0  0  0  0  0  0  0
    4.2869   -2.3917   26.9951 H   0  0  0  0  0  0  0  0  0  0  0  0
    4.9522   -3.7490   26.0841 H   0  0  0  0  0  0  0  0  0  0  0  0
    4.8787   -3.6730   29.1603 H   0  0  0  0  0  0  0  0  0  0  0  0
    5.4015   -5.0078   28.1440 H   0  0  0  0  0  0  0  0  0  0  0  0
    2.4720   -5.2655   30.9551 H   0  0  0  0  0  0  0  0  0  0  0  0
    3.4795   -3.7954   31.0234 H   0  0  0  0  0  0  0  0  0  0  0  0
    1.7404   -3.7259   31.3733 H   0  0  0  0  0  0  0  0  0  0  0  0
    3.6238   -1.6292   29.4687 H   0  0  0  0  0  0  0  0  0  0  0  0
    2.8622    0.5841   28.7551 H   0  0  0  0  0  0  0  0  0  0  0  0
    1.1831    1.9310   27.7690 H   0  0  0  0  0  0  0  0  0  0  0  0
    0.4840    2.7222   24.9204 H   0  0  0  0  0  0  0  0  0  0  0  0
    1.5102    3.5086   26.1266 H   0  0  0  0  0  0  0  0  0  0  0  0
    0.7884    5.5831   25.3169 H   0  0  0  0  0  0  0  0  0  0  0  0
   -0.2042    4.7262   24.1191 H   0  0  0  0  0  0  0  0  0  0  0  0
   -1.9106    5.7987   25.5347 H   0  0  0  0  0  0  0  0  0  0  0  0
   -0.0828    6.1947   27.5077 H   0  0  0  0  0  0  0  0  0  0  0  0
   -1.7176    5.7608   28.0255 H   0  0  0  0  0  0  0  0  0  0  0  0
   -0.9503    3.7667   28.8552 H   0  0  0  0  0  0  0  0  0  0  0  0
    0.6868    4.1500   28.3161 H   0  0  0  0  0  0  0  0  0  0  0  0
   -2.5549    3.6776   26.7622 H   0  0  0  0  0  0  0  0  0  0  0  0
   -0.9988   -1.0800   27.7602 H   0  0  0  0  0  0  0  0  0  0  0  0
   -0.2188   -3.2944   28.4400 H   0  0  0  0  0  0  0  0  0  0  0  0
  1  2  1  0
  2  3  1  0
  3  4  2  0
  3  5  2  0
  3  6  1  0
  6  7  1  0
  6  8  1  0
  8  9  2  0
  9 10  1  0
 10 11  2  0
 11 12  1  0
 12 13  1  0
 13 14  2  0
 13 15  1  0
 15 16  1  0
 16 17  1  0
 17 18  1  0
 18 19  1  0
 19 20  1  0
 18 21  1  0
 11 22  1  0
 22 23  2  0
 23  8  1  0
 20 15  1  0
 21 15  1  0
  1 24  1  0
  1 25  1  0
  1 26  1  0
  2 27  1  0
  2 28  1  0
  7 29  1  0
  7 30  1  0
  7 31  1  0
  9 32  1  0
 10 33  1  0
 12 34  1  0
 16 35  1  0
 16 36  1  0
 17 37  1  0
 17 38  1  0
 18 39  1  0
 19 40  1  0
 19 41  1  0
 20 42  1  0
 20 43  1  0
 21 44  1  0
 22 45  1  0
 23 46  1  0
M  END
>  <Energy>  (216) 
36.161298542393595

>  <compound_id>  (216) 
46335

>  <target_id>  (216) 
1

>  <reference_id>  (216) 
13

>  <inspiration_ids>  (216) 
[13, 70]

>  <energy_score>  (216) 
-54.174230259390754

>  <distance_score>  (216) 
3.912383340437006

>  <path>  (216) 
/opt/xchem-fragalysis-2/maxwin/BulkDock/SCRATCH/511023/C46335-P13/C46335-P13.minimised.mol

>  <scratch_subdir>  (216) 
/opt/xchem-fragalysis-2/maxwin/BulkDock/SCRATCH/511023/C46335-P13

>  <fragmenstein_runtime>  (216) 
8.188043594360352

>  <fragmenstein_outcome>  (216) 
too moved

>  <fragmenstein_mode>  (216) 
expansion

>  <fragmenstein_error>  (216) 


$$$$
C46335-P70
     RDKit          3D

 46 48  0  0  0  0  0  0  0  0999 V2000
    2.7350   -1.6879   27.6824 C   0  0  0  0  0  0  0  0  0  0  0  0
    3.1210   -2.4706   28.9187 C   0  0  0  0  0  0  0  0  0  0  0  0
    2.0256   -3.8515   29.2723 S   0  0  0  0  0  0  0  0  0  0  0  0
    2.8243   -4.8633   29.9443 O   0  0  0  0  0  0  0  0  0  0  0  0
    1.2559   -4.2037   28.0987 O   0  0  0  0  0  0  0  0  0  0  0  0
    0.9410   -3.2638   30.4495 N   0  0  0  0  0  0  0  0  0  0  0  0
    0.1670   -4.3455   31.1051 C   0  0  0  0  0  0  0  0  0  0  0  0
    0.1767   -2.1191   30.0798 C   0  0  0  0  0  0  0  0  0  0  0  0
    0.5884   -0.8953   30.6121 C   0  0  0  0  0  0  0  0  0  0  0  0
    0.0044    0.2774   30.1764 C   0  0  0  0  0  0  0  0  0  0  0  0
   -0.9684    0.1919   29.1933 C   0  0  0  0  0  0  0  0  0  0  0  0
   -1.2076    1.2510   28.3614 N   0  0  0  0  0  0  0  0  0  0  0  0
   -0.6082    2.6974   28.3601 C   0  0  0  0  0  0  0  0  0  0  0  0
    0.1179    3.2172   29.1160 O   0  0  0  0  0  0  0  0  0  0  0  0
   -1.1236    3.2642   27.0474 C   0  0  0  0  0  0  0  0  0  0  0  0
   -2.6012    3.5591   26.8867 C   0  0  0  0  0  0  0  0  0  0  0  0
   -2.6130    4.2370   25.5205 C   0  0  0  0  0  0  0  0  0  0  0  0
   -1.1325    4.4950   25.2435 C   0  0  0  0  0  0  0  0  0  0  0  0
   -0.5088    3.2191   24.7155 C   0  0  0  0  0  0  0  0  0  0  0  0
   -0.6318    2.3282   25.9244 C   0  0  0  0  0  0  0  0  0  0  0  0
   -0.5242    4.5183   26.5794 N   0  0  0  0  0  0  0  0  0  0  0  0
   -1.4699   -1.0324   28.7440 C   0  0  0  0  0  0  0  0  0  0  0  0
   -0.8809   -2.2003   29.1801 C   0  0  0  0  0  0  0  0  0  0  0  0
    1.7183   -1.2941   27.7423 H   0  0  0  0  0  0  0  0  0  0  0  0
    2.7973   -2.3206   26.7919 H   0  0  0  0  0  0  0  0  0  0  0  0
    3.4182   -0.8451   27.5395 H   0  0  0  0  0  0  0  0  0  0  0  0
    3.1867   -1.8414   29.8094 H   0  0  0  0  0  0  0  0  0  0  0  0
    4.1150   -2.9065   28.7671 H   0  0  0  0  0  0  0  0  0  0  0  0
   -0.3828   -4.9446   30.3732 H   0  0  0  0  0  0  0  0  0  0  0  0
    0.8381   -4.9962   31.6742 H   0  0  0  0  0  0  0  0  0  0  0  0
   -0.5500   -3.9253   31.8192 H   0  0  0  0  0  0  0  0  0  0  0  0
    1.4076   -0.8541   31.3251 H   0  0  0  0  0  0  0  0  0  0  0  0
    0.4074    1.2296   30.5076 H   0  0  0  0  0  0  0  0  0  0  0  0
   -1.8652    1.1571   27.6024 H   0  0  0  0  0  0  0  0  0  0  0  0
   -3.2437    2.6737   26.8988 H   0  0  0  0  0  0  0  0  0  0  0  0
   -2.9391    4.2463   27.6677 H   0  0  0  0  0  0  0  0  0  0  0  0
   -3.0724    3.5959   24.7598 H   0  0  0  0  0  0  0  0  0  0  0  0
   -3.1557    5.1740   25.5131 H   0  0  0  0  0  0  0  0  0  0  0  0
   -0.9307    5.3719   24.6244 H   0  0  0  0  0  0  0  0  0  0  0  0
    0.5446    3.3699   24.4497 H   0  0  0  0  0  0  0  0  0  0  0  0
   -1.0246    2.8179   23.8378 H   0  0  0  0  0  0  0  0  0  0  0  0
    0.3342    1.8651   26.1553 H   0  0  0  0  0  0  0  0  0  0  0  0
   -1.3789    1.5532   25.7413 H   0  0  0  0  0  0  0  0  0  0  0  0
   -0.8752    5.2997   27.1375 H   0  0  0  0  0  0  0  0  0  0  0  0
   -2.2062   -1.0934   27.9475 H   0  0  0  0  0  0  0  0  0  0  0  0
   -1.1841   -3.1519   28.7524 H   0  0  0  0  0  0  0  0  0  0  0  0
  1  2  1  0
  2  3  1  0
  3  4  2  0
  3  5  2  0
  3  6  1  0
  6  7  1  0
  6  8  1  0
  8  9  2  0
  9 10  1  0
 10 11  2  0
 11 12  1  0
 12 13  1  0
 13 14  2  0
 13 15  1  0
 15 16  1  0
 16 17  1  0
 17 18  1  0
 18 19  1  0
 19 20  1  0
 18 21  1  0
 11 22  1  0
 22 23  2  0
 23  8  1  0
 20 15  1  0
 21 15  1  0
  1 24  1  0
  1 25  1  0
  1 26  1  0
  2 27  1  0
  2 28  1  0
  7 29  1  0
  7 30  1  0
  7 31  1  0
  9 32  1  0
 10 33  1  0
 12 34  1  0
 16 35  1  0
 16 36  1  0
 17 37  1  0
 17 38  1  0
 18 39  1  0
 19 40  1  0
 19 41  1  0
 20 42  1  0
 20 43  1  0
 21 44  1  0
 22 45  1  0
 23 46  1  0
M  END
>  <Energy>  (217) 
58.52068641771389

>  <compound_id>  (217) 
46335

>  <target_id>  (217) 
1

>  <reference_id>  (217) 
70

>  <inspiration_ids>  (217) 
[13, 70]

>  <energy_score>  (217) 
-5.105172223732353

>  <distance_score>  (217) 
3.9338152379843523

>  <path>  (217) 
/opt/xchem-fragalysis-2/maxwin/BulkDock/SCRATCH/511023/C46335-P70/C46335-P70.minimised.mol

>  <scratch_subdir>  (217) 
/opt/xchem-fragalysis-2/maxwin/BulkDock/SCRATCH/511023/C46335-P70

>  <fragmenstein_runtime>  (217) 
5.780604362487793

>  <fragmenstein_outcome>  (217) 
too moved

>  <fragmenstein_mode>  (217) 
expansion

>  <fragmenstein_error>  (217) 


$$$$
C46344-P51
     RDKit          3D

 52 56  0  0  0  0  0  0  0  0999 V2000
   -5.1829    1.5457   18.1185 O   0  0  0  0  0  0  0  0  0  0  0  0
   -4.9158    0.4016   17.7041 C   0  0  0  0  0  0  0  0  0  0  0  0
   -5.4475    0.2723   15.4146 C   0  0  0  0  0  0  0  0  0  0  0  0
   -6.3147    0.1881   13.4540 N   0  0  0  0  0  0  0  0  0  0  0  0
   -5.9249   -0.4635   12.3476 C   0  0  0  0  0  0  0  0  0  0  0  0
   -4.7650   -0.4678   11.8818 O   0  0  0  0  0  0  0  0  0  0  0  0
   -6.9245   -0.7822   11.3954 N   0  0  0  0  0  0  0  0  0  0  0  0
   -6.6326   -0.2552   10.1577 C   0  0  0  0  0  0  0  0  0  0  0  0
   -5.3955   -0.4716    9.1961 C   0  0  0  0  0  0  0  0  0  0  0  0
   -5.7094    0.2645    7.8969 C   0  0  0  0  0  0  0  0  0  0  0  0
   -7.1809    0.0986    7.8181 C   0  0  0  0  0  0  0  0  0  0  0  0
   -7.9310    0.2237    6.6549 C   0  0  0  0  0  0  0  0  0  0  0  0
   -9.3032    0.0382    6.7350 C   0  0  0  0  0  0  0  0  0  0  0  0
   -9.8948   -0.2568    7.9662 C   0  0  0  0  0  0  0  0  0  0  0  0
   -9.1245   -0.3626    9.1331 C   0  0  0  0  0  0  0  0  0  0  0  0
   -7.7463   -0.1804    9.0777 C   0  0  0  0  0  0  0  0  0  0  0  0
   -6.7143    0.6709   11.7355 C   0  0  0  0  0  0  0  0  0  0  0  0
   -7.8991    1.1882   11.0571 O   0  0  0  0  0  0  0  0  0  0  0  0
   -4.2955   -0.9372   19.2761 N   0  0  0  0  0  0  0  0  0  0  0  0
   -3.9242   -0.6488   21.3335 C   0  0  0  0  0  0  0  0  0  0  0  0
   -3.3163   -2.2591   21.9694 C   0  0  0  0  0  0  0  0  0  0  0  0
   -2.0205   -2.1787   22.4974 C   0  0  0  0  0  0  0  0  0  0  0  0
   -2.8958   -2.5493   23.3761 N   0  0  0  0  0  0  0  0  0  0  0  0
   -3.1141   -1.3476   23.0411 N   0  0  0  0  0  0  0  0  0  0  0  0
   -3.3698   -1.0329   25.0176 C   0  0  0  0  0  0  0  0  0  0  0  0
   -3.4512   -2.0401   26.1823 C   0  0  0  0  0  0  0  0  0  0  0  0
   -2.4810   -1.6203   27.3748 C   0  0  0  0  0  0  0  0  0  0  0  0
   -2.0099   -0.2054   27.2712 C   0  0  0  0  0  0  0  0  0  0  0  0
   -2.5140    0.3053   25.9534 C   0  0  0  0  0  0  0  0  0  0  0  0
   -5.5691   -0.8779   15.1139 H   0  0  0  0  0  0  0  0  0  0  0  0
   -6.6389    0.1041   15.4915 H   0  0  0  0  0  0  0  0  0  0  0  0
   -7.9113   -0.8728   11.6277 H   0  0  0  0  0  0  0  0  0  0  0  0
   -5.3075   -1.5215    8.8969 H   0  0  0  0  0  0  0  0  0  0  0  0
   -4.4131   -0.1635    9.5518 H   0  0  0  0  0  0  0  0  0  0  0  0
   -5.4761    1.3279    7.9481 H   0  0  0  0  0  0  0  0  0  0  0  0
   -5.1949   -0.1940    7.0478 H   0  0  0  0  0  0  0  0  0  0  0  0
   -7.4607    0.4424    5.7018 H   0  0  0  0  0  0  0  0  0  0  0  0
   -9.9184    0.1074    5.8424 H   0  0  0  0  0  0  0  0  0  0  0  0
  -10.9682   -0.4198    8.0230 H   0  0  0  0  0  0  0  0  0  0  0  0
   -9.6319   -0.5802   10.0662 H   0  0  0  0  0  0  0  0  0  0  0  0
   -4.0129   -1.8119   18.8594 H   0  0  0  0  0  0  0  0  0  0  0  0
   -3.9977   -3.1692   21.8844 H   0  0  0  0  0  0  0  0  0  0  0  0
   -1.0605   -2.4851   22.8796 H   0  0  0  0  0  0  0  0  0  0  0  0
   -4.1797   -0.3778   25.1681 H   0  0  0  0  0  0  0  0  0  0  0  0
   -3.0998   -2.9333   25.6947 H   0  0  0  0  0  0  0  0  0  0  0  0
   -4.4396   -2.2476   26.5855 H   0  0  0  0  0  0  0  0  0  0  0  0
   -2.9128   -1.8498   28.3372 H   0  0  0  0  0  0  0  0  0  0  0  0
   -1.5813   -2.2473   27.4110 H   0  0  0  0  0  0  0  0  0  0  0  0
   -0.9148   -0.1653   27.3031 H   0  0  0  0  0  0  0  0  0  0  0  0
   -2.3551    0.4068   28.1078 H   0  0  0  0  0  0  0  0  0  0  0  0
   -3.2968    1.0497   26.1811 H   0  0  0  0  0  0  0  0  0  0  0  0
   -1.7717    0.9413   25.4949 H   0  0  0  0  0  0  0  0  0  0  0  0
  1  2  2  0
  2  3  1  0
  3  4  1  0
  4  5  1  0
  5  6  2  0
  5  7  1  0
  7  8  1  0
  8  9  1  0
  9 10  1  0
 10 11  1  0
 11 12  2  0
 12 13  1  0
 13 14  2  0
 14 15  1  0
 15 16  2  0
  8 17  1  0
 17 18  2  0
  2 19  1  0
 19 20  1  0
 20 21  2  0
 21 22  1  0
 22 23  2  0
 23 24  1  0
 24 25  1  0
 25 26  1  0
 26 27  1  0
 27 28  1  0
 28 29  1  0
 17  4  1  0
 24 20  1  0
 29 25  1  0
 16  8  1  0
 16 11  1  0
  3 30  1  0
  3 31  1  0
  7 32  1  0
  9 33  1  0
  9 34  1  0
 10 35  1  0
 10 36  1  0
 12 37  1  0
 13 38  1  0
 14 39  1  0
 15 40  1  0
 19 41  1  0
 21 42  1  0
 22 43  1  0
 25 44  1  0
 26 45  1  0
 26 46  1  0
 27 47  1  0
 27 48  1  0
 28 49  1  0
 28 50  1  0
 29 51  1  0
 29 52  1  0
M  END
>  <Energy>  (218) 
2109.7046965888703

>  <compound_id>  (218) 
46344

>  <target_id>  (218) 
1

>  <reference_id>  (218) 
51

>  <inspiration_ids>  (218) 
[51, 44]

>  <energy_score>  (218) 
2044.4336645887054

>  <distance_score>  (218) 
4.920364915142924

>  <path>  (218) 
/opt/xchem-fragalysis-2/maxwin/BulkDock/SCRATCH/511023/C46344-P51/C46344-P51.minimised.mol

>  <scratch_subdir>  (218) 
/opt/xchem-fragalysis-2/maxwin/BulkDock/SCRATCH/511023/C46344-P51

>  <fragmenstein_runtime>  (218) 
22.259013175964355

>  <fragmenstein_outcome>  (218) 
too moved

>  <fragmenstein_mode>  (218) 
expansion

>  <fragmenstein_error>  (218) 


$$$$
C46344-P44
     RDKit          3D

 52 56  0  0  0  0  0  0  0  0999 V2000
   -5.7518   -5.9468   17.1011 O   0  0  0  0  0  0  0  0  0  0  0  0
   -5.2479   -4.8469   16.9489 C   0  0  0  0  0  0  0  0  0  0  0  0
   -5.6591   -4.1403   14.9121 C   0  0  0  0  0  0  0  0  0  0  0  0
   -7.3061   -3.0985   13.9911 N   0  0  0  0  0  0  0  0  0  0  0  0
   -8.4803   -4.0141   13.7547 C   0  0  0  0  0  0  0  0  0  0  0  0
   -8.6189   -5.1271   14.2446 O   0  0  0  0  0  0  0  0  0  0  0  0
   -9.6813   -3.4483   13.2217 N   0  0  0  0  0  0  0  0  0  0  0  0
  -10.0361   -1.7907   12.4009 C   0  0  0  0  0  0  0  0  0  0  0  0
  -10.2731   -1.5537   10.7112 C   0  0  0  0  0  0  0  0  0  0  0  0
  -10.6164   -0.1392   10.2912 C   0  0  0  0  0  0  0  0  0  0  0  0
  -11.7026    0.0183   11.2943 C   0  0  0  0  0  0  0  0  0  0  0  0
  -12.7719    0.8791   11.1443 C   0  0  0  0  0  0  0  0  0  0  0  0
  -13.7942    0.7895   12.0736 C   0  0  0  0  0  0  0  0  0  0  0  0
  -13.7394   -0.1549   13.1138 C   0  0  0  0  0  0  0  0  0  0  0  0
  -12.6470   -1.0157   13.2799 C   0  0  0  0  0  0  0  0  0  0  0  0
  -11.5820   -0.9155   12.3878 C   0  0  0  0  0  0  0  0  0  0  0  0
   -8.0707   -1.5537   13.0041 C   0  0  0  0  0  0  0  0  0  0  0  0
   -7.3466   -0.6380   12.4502 O   0  0  0  0  0  0  0  0  0  0  0  0
   -4.4770   -4.0399   18.5019 N   0  0  0  0  0  0  0  0  0  0  0  0
   -4.4483   -4.5178   20.2621 C   0  0  0  0  0  0  0  0  0  0  0  0
   -4.7260   -5.3674   21.2587 C   0  0  0  0  0  0  0  0  0  0  0  0
   -5.9804   -4.9441   21.4462 C   0  0  0  0  0  0  0  0  0  0  0  0
   -5.9874   -3.6343   21.6366 N   0  0  0  0  0  0  0  0  0  0  0  0
   -4.3951   -3.5170   21.8663 N   0  0  0  0  0  0  0  0  0  0  0  0
   -3.6124   -3.1693   23.6208 C   0  0  0  0  0  0  0  0  0  0  0  0
   -2.5635   -2.1212   23.6279 C   0  0  0  0  0  0  0  0  0  0  0  0
   -2.5627   -0.9248   25.2976 C   0  0  0  0  0  0  0  0  0  0  0  0
   -2.6561   -1.7361   26.4459 C   0  0  0  0  0  0  0  0  0  0  0  0
   -3.5204   -2.3639   25.4040 C   0  0  0  0  0  0  0  0  0  0  0  0
   -5.0928   -4.5367   14.1139 H   0  0  0  0  0  0  0  0  0  0  0  0
   -5.0655   -3.3066   15.1491 H   0  0  0  0  0  0  0  0  0  0  0  0
  -10.3983   -3.7323   13.8831 H   0  0  0  0  0  0  0  0  0  0  0  0
  -11.2179   -2.0279   10.5655 H   0  0  0  0  0  0  0  0  0  0  0  0
   -9.6618   -1.9640    9.9157 H   0  0  0  0  0  0  0  0  0  0  0  0
   -9.7982    0.5789   10.3621 H   0  0  0  0  0  0  0  0  0  0  0  0
  -11.0174   -0.1261    9.2717 H   0  0  0  0  0  0  0  0  0  0  0  0
  -12.8270    1.5751   10.3140 H   0  0  0  0  0  0  0  0  0  0  0  0
  -14.6572    1.4461   11.9922 H   0  0  0  0  0  0  0  0  0  0  0  0
  -14.5634   -0.2037   13.8238 H   0  0  0  0  0  0  0  0  0  0  0  0
  -12.6342   -1.7079   14.1161 H   0  0  0  0  0  0  0  0  0  0  0  0
   -4.0405   -3.2165   18.2347 H   0  0  0  0  0  0  0  0  0  0  0  0
   -4.3910   -6.3193   21.6440 H   0  0  0  0  0  0  0  0  0  0  0  0
   -6.6358   -5.6292   21.9426 H   0  0  0  0  0  0  0  0  0  0  0  0
   -3.1563   -4.1386   23.9262 H   0  0  0  0  0  0  0  0  0  0  0  0
   -2.7460   -1.7376   22.5917 H   0  0  0  0  0  0  0  0  0  0  0  0
   -1.5663   -2.3689   23.2557 H   0  0  0  0  0  0  0  0  0  0  0  0
   -3.3722   -0.1828   25.4139 H   0  0  0  0  0  0  0  0  0  0  0  0
   -1.7379   -0.2048   25.4428 H   0  0  0  0  0  0  0  0  0  0  0  0
   -1.7687   -2.1884   26.8774 H   0  0  0  0  0  0  0  0  0  0  0  0
   -3.1261   -1.2899   27.3182 H   0  0  0  0  0  0  0  0  0  0  0  0
   -3.1013   -3.2992   25.7147 H   0  0  0  0  0  0  0  0  0  0  0  0
   -4.4929   -2.1651   25.8746 H   0  0  0  0  0  0  0  0  0  0  0  0
  1  2  2  0
  2  3  1  0
  3  4  1  0
  4  5  1  0
  5  6  2  0
  5  7  1  0
  7  8  1  0
  8  9  1  0
  9 10  1  0
 10 11  1  0
 11 12  2  0
 12 13  1  0
 13 14  2  0
 14 15  1  0
 15 16  2  0
  8 17  1  0
 17 18  2  0
  2 19  1  0
 19 20  1  0
 20 21  2  0
 21 22  1  0
 22 23  2  0
 23 24  1  0
 24 25  1  0
 25 26  1  0
 26 27  1  0
 27 28  1  0
 28 29  1  0
 17  4  1  0
 24 20  1  0
 29 25  1  0
 16  8  1  0
 16 11  1  0
  3 30  1  0
  3 31  1  0
  7 32  1  0
  9 33  1  0
  9 34  1  0
 10 35  1  0
 10 36  1  0
 12 37  1  0
 13 38  1  0
 14 39  1  0
 15 40  1  0
 19 41  1  0
 21 42  1  0
 22 43  1  0
 25 44  1  0
 26 45  1  0
 26 46  1  0
 27 47  1  0
 27 48  1  0
 28 49  1  0
 28 50  1  0
 29 51  1  0
 29 52  1  0
M  END
>  <Energy>  (219) 
1471.3716472614485

>  <compound_id>  (219) 
46344

>  <target_id>  (219) 
1

>  <reference_id>  (219) 
44

>  <inspiration_ids>  (219) 
[51, 44]

>  <energy_score>  (219) 
1406.1006152612651

>  <distance_score>  (219) 
7.417371102161927

>  <path>  (219) 
/opt/xchem-fragalysis-2/maxwin/BulkDock/SCRATCH/511023/C46344-P44/C46344-P44.minimised.mol

>  <scratch_subdir>  (219) 
/opt/xchem-fragalysis-2/maxwin/BulkDock/SCRATCH/511023/C46344-P44

>  <fragmenstein_runtime>  (219) 
26.216747522354126

>  <fragmenstein_outcome>  (219) 
too moved

>  <fragmenstein_mode>  (219) 
expansion

>  <fragmenstein_error>  (219) 


$$$$
C46350-P51
     RDKit          3D

 48 51  0  0  0  0  0  0  0  0999 V2000
   -6.2595    1.3036   19.4809 O   0  0  0  0  0  0  0  0  0  0  0  0
   -6.5041    1.7158   18.3970 C   0  0  0  0  0  0  0  0  0  0  0  0
   -7.4306    0.3199   17.3472 C   0  0  0  0  0  0  0  0  0  0  0  0
   -7.3923   -1.1128   15.8493 N   0  0  0  0  0  0  0  0  0  0  0  0
   -8.0582   -2.2441   15.4623 C   0  0  0  0  0  0  0  0  0  0  0  0
   -8.9953   -2.9447   15.9200 O   0  0  0  0  0  0  0  0  0  0  0  0
   -7.6448   -2.7073   14.0626 N   0  0  0  0  0  0  0  0  0  0  0  0
   -8.1589   -1.4153   12.7653 C   0  0  0  0  0  0  0  0  0  0  0  0
  -10.0094   -1.7847   12.0262 C   0  0  0  0  0  0  0  0  0  0  0  0
  -10.4525   -0.8052   10.8922 C   0  0  0  0  0  0  0  0  0  0  0  0
   -9.1635   -0.2696   10.3064 C   0  0  0  0  0  0  0  0  0  0  0  0
   -9.3695    0.3393    9.0361 C   0  0  0  0  0  0  0  0  0  0  0  0
   -8.3037    0.6284    8.2322 C   0  0  0  0  0  0  0  0  0  0  0  0
   -7.0676    0.2658    8.7041 C   0  0  0  0  0  0  0  0  0  0  0  0
   -6.8561   -0.2983   10.0164 C   0  0  0  0  0  0  0  0  0  0  0  0
   -7.8324   -0.5355   11.0092 C   0  0  0  0  0  0  0  0  0  0  0  0
   -6.6605   -1.4935   14.2920 C   0  0  0  0  0  0  0  0  0  0  0  0
   -5.6911   -0.7773   14.1187 O   0  0  0  0  0  0  0  0  0  0  0  0
   -6.0639    3.2582   17.9403 N   0  0  0  0  0  0  0  0  0  0  0  0
   -7.1108    4.4548   18.1854 C   0  0  0  0  0  0  0  0  0  0  0  0
   -7.9048    4.6297   19.4490 C   0  0  0  0  0  0  0  0  0  0  0  0
   -7.5273    5.9270   20.1502 C   0  0  0  0  0  0  0  0  0  0  0  0
   -6.0454    6.1240   20.4403 C   0  0  0  0  0  0  0  0  0  0  0  0
   -5.0931    5.0039   20.0513 C   0  0  0  0  0  0  0  0  0  0  0  0
   -5.2329    4.3398   18.6668 C   0  0  0  0  0  0  0  0  0  0  0  0
   -7.9795   -0.4132   17.9339 H   0  0  0  0  0  0  0  0  0  0  0  0
   -8.3864    0.8373   17.6630 H   0  0  0  0  0  0  0  0  0  0  0  0
   -8.0833   -3.6156   13.8764 H   0  0  0  0  0  0  0  0  0  0  0  0
  -10.1908   -2.6775   11.3882 H   0  0  0  0  0  0  0  0  0  0  0  0
  -10.8402   -2.0942   12.6671 H   0  0  0  0  0  0  0  0  0  0  0  0
  -11.0323   -1.3153   10.1212 H   0  0  0  0  0  0  0  0  0  0  0  0
  -11.1128    0.0011   11.2459 H   0  0  0  0  0  0  0  0  0  0  0  0
  -10.3778    0.5104    8.6656 H   0  0  0  0  0  0  0  0  0  0  0  0
   -8.4340    1.0576    7.2460 H   0  0  0  0  0  0  0  0  0  0  0  0
   -6.2004    0.4071    8.0585 H   0  0  0  0  0  0  0  0  0  0  0  0
   -5.7951   -0.4590   10.0321 H   0  0  0  0  0  0  0  0  0  0  0  0
   -7.7543    4.5471   17.3148 H   0  0  0  0  0  0  0  0  0  0  0  0
   -6.7018    5.4515   17.8947 H   0  0  0  0  0  0  0  0  0  0  0  0
   -7.7784    3.7166   19.9913 H   0  0  0  0  0  0  0  0  0  0  0  0
   -8.9760    4.6994   19.2202 H   0  0  0  0  0  0  0  0  0  0  0  0
   -8.1233    6.0602   21.0579 H   0  0  0  0  0  0  0  0  0  0  0  0
   -7.8523    6.7609   19.5108 H   0  0  0  0  0  0  0  0  0  0  0  0
   -5.7255    7.0355   19.9162 H   0  0  0  0  0  0  0  0  0  0  0  0
   -5.9085    6.3546   21.5043 H   0  0  0  0  0  0  0  0  0  0  0  0
   -4.8845    4.2619   20.8194 H   0  0  0  0  0  0  0  0  0  0  0  0
   -4.1082    5.5036   20.0213 H   0  0  0  0  0  0  0  0  0  0  0  0
   -4.4751    3.6447   18.9028 H   0  0  0  0  0  0  0  0  0  0  0  0
   -4.8787    5.1050   17.9609 H   0  0  0  0  0  0  0  0  0  0  0  0
  1  2  2  0
  2  3  1  0
  3  4  1  0
  4  5  1  0
  5  6  2  0
  5  7  1  0
  7  8  1  0
  8  9  1  0
  9 10  1  0
 10 11  1  0
 11 12  2  0
 12 13  1  0
 13 14  2  0
 14 15  1  0
 15 16  2  0
  8 17  1  0
 17 18  2  0
  2 19  1  0
 19 20  1  0
 20 21  1  0
 21 22  1  0
 22 23  1  0
 23 24  1  0
 24 25  1  0
 17  4  1  0
 25 19  1  0
 16  8  1  0
 16 11  1  0
  3 26  1  0
  3 27  1  0
  7 28  1  0
  9 29  1  0
  9 30  1  0
 10 31  1  0
 10 32  1  0
 12 33  1  0
 13 34  1  0
 14 35  1  0
 15 36  1  0
 20 37  1  0
 20 38  1  0
 21 39  1  0
 21 40  1  0
 22 41  1  0
 22 42  1  0
 23 43  1  0
 23 44  1  0
 24 45  1  0
 24 46  1  0
 25 47  1  0
 25 48  1  0
M  END
>  <Energy>  (220) 
963.86976356341711

>  <compound_id>  (220) 
46350

>  <target_id>  (220) 
1

>  <reference_id>  (220) 
51

>  <inspiration_ids>  (220) 
[51, 44]

>  <energy_score>  (220) 
944.7040510236911

>  <distance_score>  (220) 
8.232855289425292

>  <path>  (220) 
/opt/xchem-fragalysis-2/maxwin/BulkDock/SCRATCH/511023/C46350-P51/C46350-P51.minimised.mol

>  <scratch_subdir>  (220) 
/opt/xchem-fragalysis-2/maxwin/BulkDock/SCRATCH/511023/C46350-P51

>  <fragmenstein_runtime>  (220) 
20.14746332168579

>  <fragmenstein_outcome>  (220) 
too moved

>  <fragmenstein_mode>  (220) 
expansion

>  <fragmenstein_error>  (220) 


$$$$
C46350-P44
     RDKit          3D

 48 51  0  0  0  0  0  0  0  0999 V2000
   -2.3057    1.5400   23.6452 O   0  0  0  0  0  0  0  0  0  0  0  0
   -2.4444    1.7119   22.4847 C   0  0  0  0  0  0  0  0  0  0  0  0
   -3.0695   -0.0974   21.5307 C   0  0  0  0  0  0  0  0  0  0  0  0
   -3.9061   -0.7064   19.7772 N   0  0  0  0  0  0  0  0  0  0  0  0
   -4.4072   -1.1832   18.7278 C   0  0  0  0  0  0  0  0  0  0  0  0
   -4.1470   -2.4136   18.6903 O   0  0  0  0  0  0  0  0  0  0  0  0
   -4.9040    0.3406   17.6752 N   0  0  0  0  0  0  0  0  0  0  0  0
   -3.9986    0.3106   16.5187 C   0  0  0  0  0  0  0  0  0  0  0  0
   -3.2916    1.2582   15.1111 C   0  0  0  0  0  0  0  0  0  0  0  0
   -5.3439    0.9336   14.8291 C   0  0  0  0  0  0  0  0  0  0  0  0
   -5.5354   -0.2743   14.2351 C   0  0  0  0  0  0  0  0  0  0  0  0
   -6.4410   -0.3301   12.9492 C   0  0  0  0  0  0  0  0  0  0  0  0
   -6.0297   -0.1261   11.6651 C   0  0  0  0  0  0  0  0  0  0  0  0
   -4.5730   -0.2189   11.4785 C   0  0  0  0  0  0  0  0  0  0  0  0
   -3.3416   -0.1012   12.7457 C   0  0  0  0  0  0  0  0  0  0  0  0
   -3.7437    0.5931   14.3810 C   0  0  0  0  0  0  0  0  0  0  0  0
   -3.1818   -0.8154   18.0905 C   0  0  0  0  0  0  0  0  0  0  0  0
   -2.1511   -1.4929   17.8714 O   0  0  0  0  0  0  0  0  0  0  0  0
   -2.2995    3.1028   21.9767 N   0  0  0  0  0  0  0  0  0  0  0  0
   -0.7503    3.4116   21.5525 C   0  0  0  0  0  0  0  0  0  0  0  0
   -0.1876    4.7563   21.0168 C   0  0  0  0  0  0  0  0  0  0  0  0
    0.2248    5.7764   22.0975 C   0  0  0  0  0  0  0  0  0  0  0  0
    0.1680    5.2372   23.5241 C   0  0  0  0  0  0  0  0  0  0  0  0
   -1.2004    4.6537   23.8794 C   0  0  0  0  0  0  0  0  0  0  0  0
   -2.1114    4.4191   22.6529 C   0  0  0  0  0  0  0  0  0  0  0  0
   -4.0844   -0.0363   21.7075 H   0  0  0  0  0  0  0  0  0  0  0  0
   -2.7581   -1.0790   21.9805 H   0  0  0  0  0  0  0  0  0  0  0  0
   -4.8920    1.2510   18.1150 H   0  0  0  0  0  0  0  0  0  0  0  0
   -2.9615    1.9943   15.9620 H   0  0  0  0  0  0  0  0  0  0  0  0
   -2.4391    1.9510   14.6366 H   0  0  0  0  0  0  0  0  0  0  0  0
   -5.4468    0.8460   15.8095 H   0  0  0  0  0  0  0  0  0  0  0  0
   -6.0196    1.5433   14.1669 H   0  0  0  0  0  0  0  0  0  0  0  0
   -7.4405   -0.7015   12.8541 H   0  0  0  0  0  0  0  0  0  0  0  0
   -6.7431   -0.1318   10.8387 H   0  0  0  0  0  0  0  0  0  0  0  0
   -4.3164   -0.3037   10.4037 H   0  0  0  0  0  0  0  0  0  0  0  0
   -2.3447   -0.4142   12.3892 H   0  0  0  0  0  0  0  0  0  0  0  0
   -0.1482    3.0555   22.3941 H   0  0  0  0  0  0  0  0  0  0  0  0
   -0.4576    2.7003   20.8078 H   0  0  0  0  0  0  0  0  0  0  0  0
   -0.8644    5.2110   20.2833 H   0  0  0  0  0  0  0  0  0  0  0  0
    0.7254    4.5166   20.4539 H   0  0  0  0  0  0  0  0  0  0  0  0
    1.2399    6.1346   21.8863 H   0  0  0  0  0  0  0  0  0  0  0  0
   -0.4197    6.6613   22.0197 H   0  0  0  0  0  0  0  0  0  0  0  0
    0.4211    6.0366   24.2308 H   0  0  0  0  0  0  0  0  0  0  0  0
    0.9430    4.4721   23.6567 H   0  0  0  0  0  0  0  0  0  0  0  0
   -1.7027    5.3828   24.5299 H   0  0  0  0  0  0  0  0  0  0  0  0
   -1.0871    3.7448   24.4807 H   0  0  0  0  0  0  0  0  0  0  0  0
   -2.2515    5.2675   21.9679 H   0  0  0  0  0  0  0  0  0  0  0  0
   -3.0994    4.4595   23.1466 H   0  0  0  0  0  0  0  0  0  0  0  0
  1  2  2  0
  2  3  1  0
  3  4  1  0
  4  5  1  0
  5  6  2  0
  5  7  1  0
  7  8  1  0
  8  9  1  0
  9 10  1  0
 10 11  1  0
 11 12  2  0
 12 13  1  0
 13 14  2  0
 14 15  1  0
 15 16  2  0
  8 17  1  0
 17 18  2  0
  2 19  1  0
 19 20  1  0
 20 21  1  0
 21 22  1  0
 22 23  1  0
 23 24  1  0
 24 25  1  0
 17  4  1  0
 25 19  1  0
 16  8  1  0
 16 11  1  0
  3 26  1  0
  3 27  1  0
  7 28  1  0
  9 29  1  0
  9 30  1  0
 10 31  1  0
 10 32  1  0
 12 33  1  0
 13 34  1  0
 14 35  1  0
 15 36  1  0
 20 37  1  0
 20 38  1  0
 21 39  1  0
 21 40  1  0
 22 41  1  0
 22 42  1  0
 23 43  1  0
 23 44  1  0
 24 45  1  0
 24 46  1  0
 25 47  1  0
 25 48  1  0
M  END
>  <Energy>  (221) 
1803.6823089344316

>  <compound_id>  (221) 
46350

>  <target_id>  (221) 
1

>  <reference_id>  (221) 
44

>  <inspiration_ids>  (221) 
[51, 44]

>  <energy_score>  (221) 
1784.5165963946679

>  <distance_score>  (221) 
7.32943498364552

>  <path>  (221) 
/opt/xchem-fragalysis-2/maxwin/BulkDock/SCRATCH/511023/C46350-P44/C46350-P44.minimised.mol

>  <scratch_subdir>  (221) 
/opt/xchem-fragalysis-2/maxwin/BulkDock/SCRATCH/511023/C46350-P44

>  <fragmenstein_runtime>  (221) 
17.34667730331421

>  <fragmenstein_outcome>  (221) 
too moved

>  <fragmenstein_mode>  (221) 
expansion

>  <fragmenstein_error>  (221) 


$$$$
C46354-P51
     RDKit          3D

 51 54  0  0  0  0  0  0  0  0999 V2000
   -2.8635   -0.6542   17.6336 O   0  0  0  0  0  0  0  0  0  0  0  0
   -3.9610   -0.8063   17.6045 C   0  0  0  0  0  0  0  0  0  0  0  0
   -5.2585   -1.4394   15.4844 C   0  0  0  0  0  0  0  0  0  0  0  0
   -5.7398   -2.5116   13.5379 N   0  0  0  0  0  0  0  0  0  0  0  0
   -5.6799   -4.0619   11.9697 C   0  0  0  0  0  0  0  0  0  0  0  0
   -6.2364   -5.2346   11.8969 O   0  0  0  0  0  0  0  0  0  0  0  0
   -6.7700   -2.8358   10.4395 N   0  0  0  0  0  0  0  0  0  0  0  0
   -6.8979   -0.9404   10.6677 C   0  0  0  0  0  0  0  0  0  0  0  0
   -5.8440   -0.6345    9.2708 C   0  0  0  0  0  0  0  0  0  0  0  0
   -6.3643    0.4105    8.3307 C   0  0  0  0  0  0  0  0  0  0  0  0
   -7.7460    0.5838    8.8105 C   0  0  0  0  0  0  0  0  0  0  0  0
   -8.6513    1.3244    8.0383 C   0  0  0  0  0  0  0  0  0  0  0  0
  -10.0010    1.2285    8.3084 C   0  0  0  0  0  0  0  0  0  0  0  0
  -10.4182    0.3520    9.2990 C   0  0  0  0  0  0  0  0  0  0  0  0
   -9.4846   -0.3597   10.0744 C   0  0  0  0  0  0  0  0  0  0  0  0
   -8.1012   -0.1770    9.9444 C   0  0  0  0  0  0  0  0  0  0  0  0
   -5.9791   -0.8680   12.4191 C   0  0  0  0  0  0  0  0  0  0  0  0
   -4.8853   -0.3820   11.9861 O   0  0  0  0  0  0  0  0  0  0  0  0
   -4.6133   -0.7614   19.3107 N   0  0  0  0  0  0  0  0  0  0  0  0
   -3.7240   -0.3108   21.2523 C   0  0  0  0  0  0  0  0  0  0  0  0
   -2.9069   -1.6514   22.5382 C   0  0  0  0  0  0  0  0  0  0  0  0
   -3.2961   -1.7220   24.4239 C   0  0  0  0  0  0  0  0  0  0  0  0
   -2.8090   -0.2747   25.7232 C   0  0  0  0  0  0  0  0  0  0  0  0
   -3.0262    1.5095   25.5324 C   0  0  0  0  0  0  0  0  0  0  0  0
   -2.7165    2.4079   23.9753 C   0  0  0  0  0  0  0  0  0  0  0  0
   -3.0462    1.5182   22.2749 C   0  0  0  0  0  0  0  0  0  0  0  0
   -5.0173   -2.5476   15.4354 H   0  0  0  0  0  0  0  0  0  0  0  0
   -6.3682   -1.2598   15.3756 H   0  0  0  0  0  0  0  0  0  0  0  0
   -7.4410   -2.9708    9.5744 H   0  0  0  0  0  0  0  0  0  0  0  0
   -5.8096   -1.5566    8.6727 H   0  0  0  0  0  0  0  0  0  0  0  0
   -4.7992   -0.4402    9.5379 H   0  0  0  0  0  0  0  0  0  0  0  0
   -5.8016    1.3381    8.3102 H   0  0  0  0  0  0  0  0  0  0  0  0
   -6.3591    0.0214    7.3046 H   0  0  0  0  0  0  0  0  0  0  0  0
   -8.3092    1.9118    7.1906 H   0  0  0  0  0  0  0  0  0  0  0  0
  -10.7261    1.7667    7.7064 H   0  0  0  0  0  0  0  0  0  0  0  0
  -11.4800    0.1832    9.4593 H   0  0  0  0  0  0  0  0  0  0  0  0
   -9.9068   -1.1033   10.7474 H   0  0  0  0  0  0  0  0  0  0  0  0
   -5.5050   -0.7950   19.2436 H   0  0  0  0  0  0  0  0  0  0  0  0
   -4.5488   -0.3123   21.7609 H   0  0  0  0  0  0  0  0  0  0  0  0
   -3.2702   -2.6495   22.2522 H   0  0  0  0  0  0  0  0  0  0  0  0
   -1.8294   -1.7089   22.5150 H   0  0  0  0  0  0  0  0  0  0  0  0
   -2.9340   -2.7779   24.4953 H   0  0  0  0  0  0  0  0  0  0  0  0
   -4.0856   -2.1313   25.0246 H   0  0  0  0  0  0  0  0  0  0  0  0
   -1.7250   -0.2076   25.8693 H   0  0  0  0  0  0  0  0  0  0  0  0
   -3.0499   -0.6311   26.7331 H   0  0  0  0  0  0  0  0  0  0  0  0
   -4.0512    1.7475   25.8426 H   0  0  0  0  0  0  0  0  0  0  0  0
   -2.3542    1.9741   26.2650 H   0  0  0  0  0  0  0  0  0  0  0  0
   -3.2877    3.3469   23.9849 H   0  0  0  0  0  0  0  0  0  0  0  0
   -1.6467    2.6691   23.9621 H   0  0  0  0  0  0  0  0  0  0  0  0
   -1.9984    1.6789   21.9891 H   0  0  0  0  0  0  0  0  0  0  0  0
   -3.6867    2.3457   21.8363 H   0  0  0  0  0  0  0  0  0  0  0  0
  1  2  2  0
  2  3  1  0
  3  4  1  0
  4  5  1  0
  5  6  2  0
  5  7  1  0
  7  8  1  0
  8  9  1  0
  9 10  1  0
 10 11  1  0
 11 12  2  0
 12 13  1  0
 13 14  2  0
 14 15  1  0
 15 16  2  0
  8 17  1  0
 17 18  2  0
  2 19  1  0
 19 20  1  0
 20 21  1  0
 21 22  1  0
 22 23  1  0
 23 24  1  0
 24 25  1  0
 25 26  1  0
 17  4  1  0
 26 20  1  0
 16  8  1  0
 16 11  1  0
  3 27  1  0
  3 28  1  0
  7 29  1  0
  9 30  1  0
  9 31  1  0
 10 32  1  0
 10 33  1  0
 12 34  1  0
 13 35  1  0
 14 36  1  0
 15 37  1  0
 19 38  1  0
 20 39  1  0
 21 40  1  0
 21 41  1  0
 22 42  1  0
 22 43  1  0
 23 44  1  0
 23 45  1  0
 24 46  1  0
 24 47  1  0
 25 48  1  0
 25 49  1  0
 26 50  1  0
 26 51  1  0
M  END
>  <Energy>  (222) 
2516.0251011499408

>  <compound_id>  (222) 
46354

>  <target_id>  (222) 
1

>  <reference_id>  (222) 
51

>  <inspiration_ids>  (222) 
[51, 44]

>  <energy_score>  (222) 
2496.984549799293

>  <distance_score>  (222) 
6.10544437019173

>  <path>  (222) 
/opt/xchem-fragalysis-2/maxwin/BulkDock/SCRATCH/511023/C46354-P51/C46354-P51.minimised.mol

>  <scratch_subdir>  (222) 
/opt/xchem-fragalysis-2/maxwin/BulkDock/SCRATCH/511023/C46354-P51

>  <fragmenstein_runtime>  (222) 
21.936803579330444

>  <fragmenstein_outcome>  (222) 
too moved

>  <fragmenstein_mode>  (222) 
expansion

>  <fragmenstein_error>  (222) 


$$$$
C46354-P44
     RDKit          3D

 51 54  0  0  0  0  0  0  0  0999 V2000
   -3.6973   -2.3548   18.5093 O   0  0  0  0  0  0  0  0  0  0  0  0
   -4.3062   -3.3511   18.1725 C   0  0  0  0  0  0  0  0  0  0  0  0
   -4.9922   -3.3980   16.1296 C   0  0  0  0  0  0  0  0  0  0  0  0
   -5.9248   -2.0466   14.7322 N   0  0  0  0  0  0  0  0  0  0  0  0
   -5.9592   -0.7640   14.1269 C   0  0  0  0  0  0  0  0  0  0  0  0
   -5.6995   -0.7990   12.8391 O   0  0  0  0  0  0  0  0  0  0  0  0
   -6.7450   -0.0835   13.1399 N   0  0  0  0  0  0  0  0  0  0  0  0
   -7.8381   -0.9167   12.3689 C   0  0  0  0  0  0  0  0  0  0  0  0
   -7.0354   -0.2603   10.8181 C   0  0  0  0  0  0  0  0  0  0  0  0
   -7.7557    0.7815   10.0063 C   0  0  0  0  0  0  0  0  0  0  0  0
   -9.0275    0.1158    9.8894 C   0  0  0  0  0  0  0  0  0  0  0  0
   -9.9069    0.4376    8.8516 C   0  0  0  0  0  0  0  0  0  0  0  0
  -11.2058    0.0223    8.9592 C   0  0  0  0  0  0  0  0  0  0  0  0
  -11.5731   -0.6970   10.0892 C   0  0  0  0  0  0  0  0  0  0  0  0
  -10.6398   -1.1143   11.0772 C   0  0  0  0  0  0  0  0  0  0  0  0
   -9.2863   -0.6927   11.0353 C   0  0  0  0  0  0  0  0  0  0  0  0
   -7.3951   -2.1958   14.0109 C   0  0  0  0  0  0  0  0  0  0  0  0
   -7.9060   -3.3540   13.9313 O   0  0  0  0  0  0  0  0  0  0  0  0
   -4.7062   -4.3838   18.8701 N   0  0  0  0  0  0  0  0  0  0  0  0
   -4.5280   -4.8209   20.6837 C   0  0  0  0  0  0  0  0  0  0  0  0
   -4.7056   -4.1325   22.1195 C   0  0  0  0  0  0  0  0  0  0  0  0
   -3.4167   -3.8242   23.0143 C   0  0  0  0  0  0  0  0  0  0  0  0
   -2.4806   -4.9787   23.5745 C   0  0  0  0  0  0  0  0  0  0  0  0
   -2.8502   -6.4664   23.5617 C   0  0  0  0  0  0  0  0  0  0  0  0
   -3.7061   -6.8728   22.3996 C   0  0  0  0  0  0  0  0  0  0  0  0
   -3.3157   -6.0055   21.1977 C   0  0  0  0  0  0  0  0  0  0  0  0
   -3.9705   -3.6644   15.9996 H   0  0  0  0  0  0  0  0  0  0  0  0
   -5.2056   -4.4111   15.7447 H   0  0  0  0  0  0  0  0  0  0  0  0
   -6.2539    0.6953   12.7379 H   0  0  0  0  0  0  0  0  0  0  0  0
   -6.8443   -0.9228    9.9492 H   0  0  0  0  0  0  0  0  0  0  0  0
   -6.0431   -0.0477   11.0851 H   0  0  0  0  0  0  0  0  0  0  0  0
   -8.0732    1.6839   10.4943 H   0  0  0  0  0  0  0  0  0  0  0  0
   -7.2827    0.9812    9.0391 H   0  0  0  0  0  0  0  0  0  0  0  0
   -9.5929    1.0636    8.0228 H   0  0  0  0  0  0  0  0  0  0  0  0
  -11.9386    0.2826    8.2035 H   0  0  0  0  0  0  0  0  0  0  0  0
  -12.6224   -0.9410   10.1928 H   0  0  0  0  0  0  0  0  0  0  0  0
  -11.0152   -1.6537   11.9289 H   0  0  0  0  0  0  0  0  0  0  0  0
   -5.2475   -4.9667   18.2706 H   0  0  0  0  0  0  0  0  0  0  0  0
   -5.5245   -5.2912   20.7166 H   0  0  0  0  0  0  0  0  0  0  0  0
   -5.2347   -4.8878   22.7117 H   0  0  0  0  0  0  0  0  0  0  0  0
   -5.4989   -3.3972   22.1547 H   0  0  0  0  0  0  0  0  0  0  0  0
   -2.8492   -2.9921   22.5938 H   0  0  0  0  0  0  0  0  0  0  0  0
   -3.6570   -3.2473   23.8949 H   0  0  0  0  0  0  0  0  0  0  0  0
   -2.3803   -4.8484   24.6337 H   0  0  0  0  0  0  0  0  0  0  0  0
   -1.4536   -4.8590   23.2083 H   0  0  0  0  0  0  0  0  0  0  0  0
   -1.9110   -7.0367   23.5312 H   0  0  0  0  0  0  0  0  0  0  0  0
   -3.3302   -6.7913   24.4918 H   0  0  0  0  0  0  0  0  0  0  0  0
   -3.5097   -7.9289   22.1727 H   0  0  0  0  0  0  0  0  0  0  0  0
   -4.7708   -6.8267   22.6440 H   0  0  0  0  0  0  0  0  0  0  0  0
   -2.8966   -6.6482   20.4205 H   0  0  0  0  0  0  0  0  0  0  0  0
   -2.3929   -5.5872   21.5165 H   0  0  0  0  0  0  0  0  0  0  0  0
  1  2  2  0
  2  3  1  0
  3  4  1  0
  4  5  1  0
  5  6  2  0
  5  7  1  0
  7  8  1  0
  8  9  1  0
  9 10  1  0
 10 11  1  0
 11 12  2  0
 12 13  1  0
 13 14  2  0
 14 15  1  0
 15 16  2  0
  8 17  1  0
 17 18  2  0
  2 19  1  0
 19 20  1  0
 20 21  1  0
 21 22  1  0
 22 23  1  0
 23 24  1  0
 24 25  1  0
 25 26  1  0
 17  4  1  0
 26 20  1  0
 16  8  1  0
 16 11  1  0
  3 27  1  0
  3 28  1  0
  7 29  1  0
  9 30  1  0
  9 31  1  0
 10 32  1  0
 10 33  1  0
 12 34  1  0
 13 35  1  0
 14 36  1  0
 15 37  1  0
 19 38  1  0
 20 39  1  0
 21 40  1  0
 21 41  1  0
 22 42  1  0
 22 43  1  0
 23 44  1  0
 23 45  1  0
 24 46  1  0
 24 47  1  0
 25 48  1  0
 25 49  1  0
 26 50  1  0
 26 51  1  0
M  END
>  <Energy>  (223) 
976.32558934486758

>  <compound_id>  (223) 
46354

>  <target_id>  (223) 
1

>  <reference_id>  (223) 
44

>  <inspiration_ids>  (223) 
[51, 44]

>  <energy_score>  (223) 
957.2850379942467

>  <distance_score>  (223) 
8.337331927961365

>  <path>  (223) 
/opt/xchem-fragalysis-2/maxwin/BulkDock/SCRATCH/511023/C46354-P44/C46354-P44.minimised.mol

>  <scratch_subdir>  (223) 
/opt/xchem-fragalysis-2/maxwin/BulkDock/SCRATCH/511023/C46354-P44

>  <fragmenstein_runtime>  (223) 
22.537980556488037

>  <fragmenstein_outcome>  (223) 
too moved

>  <fragmenstein_mode>  (223) 
expansion

>  <fragmenstein_error>  (223) 


$$$$
C46355-P51
     RDKit          3D

 54 57  0  0  0  0  0  0  0  0999 V2000
   -1.0908   -1.6384   17.9813 O   0  0  0  0  0  0  0  0  0  0  0  0
   -2.2346   -1.8147   17.5875 C   0  0  0  0  0  0  0  0  0  0  0  0
   -2.1333   -2.2792   15.1756 C   0  0  0  0  0  0  0  0  0  0  0  0
   -2.7588   -1.1221   13.2242 N   0  0  0  0  0  0  0  0  0  0  0  0
   -4.1602   -0.8495   11.9284 C   0  0  0  0  0  0  0  0  0  0  0  0
   -5.5211   -1.1841   12.4317 O   0  0  0  0  0  0  0  0  0  0  0  0
   -4.4376   -0.7137   10.5783 N   0  0  0  0  0  0  0  0  0  0  0  0
   -3.7980    0.1617    9.9352 C   0  0  0  0  0  0  0  0  0  0  0  0
   -2.8359   -0.4170    8.8963 C   0  0  0  0  0  0  0  0  0  0  0  0
   -3.4585   -1.3544    7.9071 C   0  0  0  0  0  0  0  0  0  0  0  0
   -4.8423   -0.9047    7.7912 C   0  0  0  0  0  0  0  0  0  0  0  0
   -5.7817   -1.4284    6.9022 C   0  0  0  0  0  0  0  0  0  0  0  0
   -7.0208   -0.8287    6.7836 C   0  0  0  0  0  0  0  0  0  0  0  0
   -7.3154    0.2493    7.5980 C   0  0  0  0  0  0  0  0  0  0  0  0
   -6.3902    0.6922    8.5620 C   0  0  0  0  0  0  0  0  0  0  0  0
   -5.1063    0.1216    8.6956 C   0  0  0  0  0  0  0  0  0  0  0  0
   -3.9341   -0.0957   12.0292 C   0  0  0  0  0  0  0  0  0  0  0  0
   -5.4717    0.4090   12.1201 O   0  0  0  0  0  0  0  0  0  0  0  0
   -3.6044   -1.4487   19.2390 N   0  0  0  0  0  0  0  0  0  0  0  0
   -3.4253   -0.6826   21.4518 C   0  0  0  0  0  0  0  0  0  0  0  0
   -3.3717   -2.5529   22.2435 C   0  0  0  0  0  0  0  0  0  0  0  0
   -3.3250   -3.2651   23.9143 C   0  0  0  0  0  0  0  0  0  0  0  0
   -3.6760   -2.3977   25.5855 C   0  0  0  0  0  0  0  0  0  0  0  0
   -2.9349   -1.6301   26.8073 C   0  0  0  0  0  0  0  0  0  0  0  0
   -2.6510   -0.2008   26.3588 C   0  0  0  0  0  0  0  0  0  0  0  0
   -1.9172   -0.2380   25.0380 C   0  0  0  0  0  0  0  0  0  0  0  0
   -2.2219   -1.2568   23.1241 C   0  0  0  0  0  0  0  0  0  0  0  0
   -0.8628   -2.2757   15.1106 H   0  0  0  0  0  0  0  0  0  0  0  0
   -1.5898   -3.1775   14.7024 H   0  0  0  0  0  0  0  0  0  0  0  0
   -5.4312   -0.4548   10.5190 H   0  0  0  0  0  0  0  0  0  0  0  0
   -2.4200    0.4528    8.4390 H   0  0  0  0  0  0  0  0  0  0  0  0
   -1.9421   -0.9187    9.1784 H   0  0  0  0  0  0  0  0  0  0  0  0
   -3.3745   -2.4056    8.1726 H   0  0  0  0  0  0  0  0  0  0  0  0
   -2.9490   -1.1231    6.9895 H   0  0  0  0  0  0  0  0  0  0  0  0
   -5.5503   -2.3081    6.3096 H   0  0  0  0  0  0  0  0  0  0  0  0
   -7.7594   -1.2166    6.0882 H   0  0  0  0  0  0  0  0  0  0  0  0
   -8.3004    0.7087    7.5468 H   0  0  0  0  0  0  0  0  0  0  0  0
   -6.8163    1.4466    9.2010 H   0  0  0  0  0  0  0  0  0  0  0  0
   -4.4986   -1.5088   18.9014 H   0  0  0  0  0  0  0  0  0  0  0  0
   -2.5650   -0.0671   21.6468 H   0  0  0  0  0  0  0  0  0  0  0  0
   -2.3901   -2.8124   22.0936 H   0  0  0  0  0  0  0  0  0  0  0  0
   -4.0793   -3.2760   21.8275 H   0  0  0  0  0  0  0  0  0  0  0  0
   -2.5094   -3.9818   23.9758 H   0  0  0  0  0  0  0  0  0  0  0  0
   -4.1109   -3.8926   23.5037 H   0  0  0  0  0  0  0  0  0  0  0  0
   -4.6138   -2.6016   26.1029 H   0  0  0  0  0  0  0  0  0  0  0  0
   -3.8764   -1.4701   25.1755 H   0  0  0  0  0  0  0  0  0  0  0  0
   -3.5834   -1.6488   27.6696 H   0  0  0  0  0  0  0  0  0  0  0  0
   -2.0138   -2.0835   27.1958 H   0  0  0  0  0  0  0  0  0  0  0  0
   -3.4113    0.5709   26.2375 H   0  0  0  0  0  0  0  0  0  0  0  0
   -2.0656    0.2692   27.1724 H   0  0  0  0  0  0  0  0  0  0  0  0
   -1.3056   -0.6446   24.2726 H   0  0  0  0  0  0  0  0  0  0  0  0
   -1.0669   -0.3120   25.7945 H   0  0  0  0  0  0  0  0  0  0  0  0
   -2.9439   -1.6497   23.7322 H   0  0  0  0  0  0  0  0  0  0  0  0
   -1.3274   -1.8555   22.8668 H   0  0  0  0  0  0  0  0  0  0  0  0
  1  2  2  0
  2  3  1  0
  3  4  1  0
  4  5  1  0
  5  6  2  0
  5  7  1  0
  7  8  1  0
  8  9  1  0
  9 10  1  0
 10 11  1  0
 11 12  2  0
 12 13  1  0
 13 14  2  0
 14 15  1  0
 15 16  2  0
  8 17  1  0
 17 18  2  0
  2 19  1  0
 19 20  1  0
 20 21  1  0
 21 22  1  0
 22 23  1  0
 23 24  1  0
 24 25  1  0
 25 26  1  0
 26 27  1  0
 17  4  1  0
 27 20  1  0
 16  8  1  0
 16 11  1  0
  3 28  1  0
  3 29  1  0
  7 30  1  0
  9 31  1  0
  9 32  1  0
 10 33  1  0
 10 34  1  0
 12 35  1  0
 13 36  1  0
 14 37  1  0
 15 38  1  0
 19 39  1  0
 20 40  1  0
 21 41  1  0
 21 42  1  0
 22 43  1  0
 22 44  1  0
 23 45  1  0
 23 46  1  0
 24 47  1  0
 24 48  1  0
 25 49  1  0
 25 50  1  0
 26 51  1  0
 26 52  1  0
 27 53  1  0
 27 54  1  0
M  END
>  <Energy>  (224) 
3279.1062317495303

>  <compound_id>  (224) 
46355

>  <target_id>  (224) 
1

>  <reference_id>  (224) 
51

>  <inspiration_ids>  (224) 
[51, 44]

>  <energy_score>  (224) 
3245.9965694436487

>  <distance_score>  (224) 
6.5241419003334356

>  <path>  (224) 
/opt/xchem-fragalysis-2/maxwin/BulkDock/SCRATCH/511023/C46355-P51/C46355-P51.minimised.mol

>  <scratch_subdir>  (224) 
/opt/xchem-fragalysis-2/maxwin/BulkDock/SCRATCH/511023/C46355-P51

>  <fragmenstein_runtime>  (224) 
31.80048441886902

>  <fragmenstein_outcome>  (224) 
too moved

>  <fragmenstein_mode>  (224) 
expansion

>  <fragmenstein_error>  (224) 


$$$$
C46355-P44
     RDKit          3D

 54 57  0  0  0  0  0  0  0  0999 V2000
   -5.5300   -4.7619   20.9721 O   0  0  0  0  0  0  0  0  0  0  0  0
   -4.6933   -3.9532   20.5957 C   0  0  0  0  0  0  0  0  0  0  0  0
   -4.4125   -3.7906   18.4316 C   0  0  0  0  0  0  0  0  0  0  0  0
   -5.1383   -3.3671   16.4583 N   0  0  0  0  0  0  0  0  0  0  0  0
   -5.1349   -4.1830   15.3569 C   0  0  0  0  0  0  0  0  0  0  0  0
   -4.2309   -4.9411   15.4288 O   0  0  0  0  0  0  0  0  0  0  0  0
   -6.1262   -3.5656   14.0645 N   0  0  0  0  0  0  0  0  0  0  0  0
   -7.2821   -2.0193   14.0858 C   0  0  0  0  0  0  0  0  0  0  0  0
   -6.6120   -0.4046   13.1563 C   0  0  0  0  0  0  0  0  0  0  0  0
   -6.2743    0.0230   11.8112 C   0  0  0  0  0  0  0  0  0  0  0  0
   -7.4730   -0.3500   11.2426 C   0  0  0  0  0  0  0  0  0  0  0  0
   -7.9885    0.2086    9.9805 C   0  0  0  0  0  0  0  0  0  0  0  0
   -9.3273    0.0183    9.5737 C   0  0  0  0  0  0  0  0  0  0  0  0
  -10.2465   -0.7086   10.3571 C   0  0  0  0  0  0  0  0  0  0  0  0
   -9.8532   -1.2661   11.6404 C   0  0  0  0  0  0  0  0  0  0  0  0
   -8.2264   -1.1475   12.4224 C   0  0  0  0  0  0  0  0  0  0  0  0
   -5.7396   -1.9818   15.1307 C   0  0  0  0  0  0  0  0  0  0  0  0
   -5.6892   -0.7888   14.9117 O   0  0  0  0  0  0  0  0  0  0  0  0
   -3.5861   -2.9382   21.8866 N   0  0  0  0  0  0  0  0  0  0  0  0
   -3.5999   -2.8378   23.7715 C   0  0  0  0  0  0  0  0  0  0  0  0
   -3.5005   -1.3685   25.1125 C   0  0  0  0  0  0  0  0  0  0  0  0
   -3.2758    0.4295   25.7004 C   0  0  0  0  0  0  0  0  0  0  0  0
   -2.6277    0.9262   27.0205 C   0  0  0  0  0  0  0  0  0  0  0  0
   -1.9871   -0.0328   27.9861 C   0  0  0  0  0  0  0  0  0  0  0  0
   -1.2646   -1.0869   27.2012 C   0  0  0  0  0  0  0  0  0  0  0  0
   -2.2061   -2.3062   26.7800 C   0  0  0  0  0  0  0  0  0  0  0  0
   -2.9229   -3.2513   25.1340 C   0  0  0  0  0  0  0  0  0  0  0  0
   -4.1025   -2.7524   18.6764 H   0  0  0  0  0  0  0  0  0  0  0  0
   -5.0005   -4.6139   18.1696 H   0  0  0  0  0  0  0  0  0  0  0  0
   -5.5171   -3.7207   13.3045 H   0  0  0  0  0  0  0  0  0  0  0  0
   -5.8652   -0.9930   13.1981 H   0  0  0  0  0  0  0  0  0  0  0  0
   -6.4973    0.5108   13.7938 H   0  0  0  0  0  0  0  0  0  0  0  0
   -5.2888   -0.2292   11.4342 H   0  0  0  0  0  0  0  0  0  0  0  0
   -6.3988    1.0777   11.9267 H   0  0  0  0  0  0  0  0  0  0  0  0
   -7.3273    0.7799    9.3363 H   0  0  0  0  0  0  0  0  0  0  0  0
   -9.6546    0.4272    8.6204 H   0  0  0  0  0  0  0  0  0  0  0  0
  -11.2598   -0.8634    9.9984 H   0  0  0  0  0  0  0  0  0  0  0  0
  -10.6477   -1.7866   12.1642 H   0  0  0  0  0  0  0  0  0  0  0  0
   -3.0450   -2.2932   21.4106 H   0  0  0  0  0  0  0  0  0  0  0  0
   -4.4553   -3.4566   23.5506 H   0  0  0  0  0  0  0  0  0  0  0  0
   -2.4766   -1.2871   25.1950 H   0  0  0  0  0  0  0  0  0  0  0  0
   -4.1011   -1.8156   25.8814 H   0  0  0  0  0  0  0  0  0  0  0  0
   -4.2508    0.9403   25.6368 H   0  0  0  0  0  0  0  0  0  0  0  0
   -2.6414    1.0258   25.0437 H   0  0  0  0  0  0  0  0  0  0  0  0
   -3.3137    1.6066   27.5324 H   0  0  0  0  0  0  0  0  0  0  0  0
   -1.8217    1.6198   26.7250 H   0  0  0  0  0  0  0  0  0  0  0  0
   -1.2661    0.5275   28.5962 H   0  0  0  0  0  0  0  0  0  0  0  0
   -2.6683   -0.4837   28.7042 H   0  0  0  0  0  0  0  0  0  0  0  0
   -0.4877   -1.4896   27.8696 H   0  0  0  0  0  0  0  0  0  0  0  0
   -0.7190   -0.5439   26.4448 H   0  0  0  0  0  0  0  0  0  0  0  0
   -3.0869   -2.1307   27.4233 H   0  0  0  0  0  0  0  0  0  0  0  0
   -1.5369   -3.0396   27.2825 H   0  0  0  0  0  0  0  0  0  0  0  0
   -2.6878   -4.3309   24.9326 H   0  0  0  0  0  0  0  0  0  0  0  0
   -3.7105   -3.3663   25.8067 H   0  0  0  0  0  0  0  0  0  0  0  0
  1  2  2  0
  2  3  1  0
  3  4  1  0
  4  5  1  0
  5  6  2  0
  5  7  1  0
  7  8  1  0
  8  9  1  0
  9 10  1  0
 10 11  1  0
 11 12  2  0
 12 13  1  0
 13 14  2  0
 14 15  1  0
 15 16  2  0
  8 17  1  0
 17 18  2  0
  2 19  1  0
 19 20  1  0
 20 21  1  0
 21 22  1  0
 22 23  1  0
 23 24  1  0
 24 25  1  0
 25 26  1  0
 26 27  1  0
 17  4  1  0
 27 20  1  0
 16  8  1  0
 16 11  1  0
  3 28  1  0
  3 29  1  0
  7 30  1  0
  9 31  1  0
  9 32  1  0
 10 33  1  0
 10 34  1  0
 12 35  1  0
 13 36  1  0
 14 37  1  0
 15 38  1  0
 19 39  1  0
 20 40  1  0
 21 41  1  0
 21 42  1  0
 22 43  1  0
 22 44  1  0
 23 45  1  0
 23 46  1  0
 24 47  1  0
 24 48  1  0
 25 49  1  0
 25 50  1  0
 26 51  1  0
 26 52  1  0
 27 53  1  0
 27 54  1  0
M  END
>  <Energy>  (225) 
1746.8323043159319

>  <compound_id>  (225) 
46355

>  <target_id>  (225) 
1

>  <reference_id>  (225) 
44

>  <inspiration_ids>  (225) 
[51, 44]

>  <energy_score>  (225) 
1713.7226420100988

>  <distance_score>  (225) 
6.749398837382829

>  <path>  (225) 
/opt/xchem-fragalysis-2/maxwin/BulkDock/SCRATCH/511023/C46355-P44/C46355-P44.minimised.mol

>  <scratch_subdir>  (225) 
/opt/xchem-fragalysis-2/maxwin/BulkDock/SCRATCH/511023/C46355-P44

>  <fragmenstein_runtime>  (225) 
36.67126178741455

>  <fragmenstein_outcome>  (225) 
too moved

>  <fragmenstein_mode>  (225) 
expansion

>  <fragmenstein_error>  (225) 


$$$$
C46356-P51
     RDKit          3D

 48 51  0  0  0  0  0  0  0  0999 V2000
   -5.7528    1.6765   19.3970 O   0  0  0  0  0  0  0  0  0  0  0  0
   -5.6647    2.3739   18.4170 C   0  0  0  0  0  0  0  0  0  0  0  0
   -5.3021    1.3269   16.9223 C   0  0  0  0  0  0  0  0  0  0  0  0
   -5.7404    0.5877   15.0190 N   0  0  0  0  0  0  0  0  0  0  0  0
   -5.9389   -0.5721   14.3739 C   0  0  0  0  0  0  0  0  0  0  0  0
   -6.1605   -1.7038   14.7559 O   0  0  0  0  0  0  0  0  0  0  0  0
   -6.2691   -0.4800   12.9558 N   0  0  0  0  0  0  0  0  0  0  0  0
   -6.4999    0.4538   11.8891 C   0  0  0  0  0  0  0  0  0  0  0  0
   -7.1335   -0.4555   10.8017 C   0  0  0  0  0  0  0  0  0  0  0  0
   -6.6043   -0.4553    9.3474 C   0  0  0  0  0  0  0  0  0  0  0  0
   -7.4417    0.7026    9.1767 C   0  0  0  0  0  0  0  0  0  0  0  0
   -8.0226    1.1203    7.9836 C   0  0  0  0  0  0  0  0  0  0  0  0
   -9.1440    1.9223    8.0680 C   0  0  0  0  0  0  0  0  0  0  0  0
   -9.6690    2.2444    9.3216 C   0  0  0  0  0  0  0  0  0  0  0  0
   -9.0498    1.8244   10.5238 C   0  0  0  0  0  0  0  0  0  0  0  0
   -7.8288    1.0583   10.5213 C   0  0  0  0  0  0  0  0  0  0  0  0
   -6.5462    1.1356   13.6557 C   0  0  0  0  0  0  0  0  0  0  0  0
   -7.0945    2.2037   13.6225 O   0  0  0  0  0  0  0  0  0  0  0  0
   -5.6988    3.8216   18.2840 N   0  0  0  0  0  0  0  0  0  0  0  0
   -5.7520    4.8873   19.3026 C   0  0  0  0  0  0  0  0  0  0  0  0
   -5.7192    6.2905   18.7016 C   0  0  0  0  0  0  0  0  0  0  0  0
   -4.3368    6.8331   18.3167 C   0  0  0  0  0  0  0  0  0  0  0  0
   -3.1376    6.1335   18.9401 C   0  0  0  0  0  0  0  0  0  0  0  0
   -3.4316    5.6826   20.3428 C   0  0  0  0  0  0  0  0  0  0  0  0
   -4.6822    4.8146   20.4376 C   0  0  0  0  0  0  0  0  0  0  0  0
   -4.3962    0.7876   17.1627 H   0  0  0  0  0  0  0  0  0  0  0  0
   -6.3067    1.0616   17.4509 H   0  0  0  0  0  0  0  0  0  0  0  0
   -7.2116   -0.7874   12.9497 H   0  0  0  0  0  0  0  0  0  0  0  0
   -6.9112   -1.3226   11.1818 H   0  0  0  0  0  0  0  0  0  0  0  0
   -8.2606   -0.6320   10.9212 H   0  0  0  0  0  0  0  0  0  0  0  0
   -5.5361   -0.2834    9.2034 H   0  0  0  0  0  0  0  0  0  0  0  0
   -6.9534   -1.3252    8.7847 H   0  0  0  0  0  0  0  0  0  0  0  0
   -7.6751    0.7499    7.0249 H   0  0  0  0  0  0  0  0  0  0  0  0
   -9.6481    2.2574    7.1661 H   0  0  0  0  0  0  0  0  0  0  0  0
  -10.5607    2.8654    9.3803 H   0  0  0  0  0  0  0  0  0  0  0  0
   -9.4941    2.2475   11.4156 H   0  0  0  0  0  0  0  0  0  0  0  0
   -5.6826    4.0606   17.3124 H   0  0  0  0  0  0  0  0  0  0  0  0
   -6.7421    4.7462   19.7479 H   0  0  0  0  0  0  0  0  0  0  0  0
   -6.1412    6.9786   19.4476 H   0  0  0  0  0  0  0  0  0  0  0  0
   -6.3874    6.3534   17.8336 H   0  0  0  0  0  0  0  0  0  0  0  0
   -4.2278    6.8194   17.2267 H   0  0  0  0  0  0  0  0  0  0  0  0
   -4.3064    7.8966   18.5889 H   0  0  0  0  0  0  0  0  0  0  0  0
   -2.8374    5.2751   18.3376 H   0  0  0  0  0  0  0  0  0  0  0  0
   -2.2771    6.8131   18.9350 H   0  0  0  0  0  0  0  0  0  0  0  0
   -2.5702    5.1575   20.7678 H   0  0  0  0  0  0  0  0  0  0  0  0
   -3.5665    6.5743   20.9706 H   0  0  0  0  0  0  0  0  0  0  0  0
   -5.1466    5.2212   21.3443 H   0  0  0  0  0  0  0  0  0  0  0  0
   -4.4142    3.7779   20.6551 H   0  0  0  0  0  0  0  0  0  0  0  0
  1  2  2  0
  2  3  1  0
  3  4  1  0
  4  5  1  0
  5  6  2  0
  5  7  1  0
  7  8  1  0
  8  9  1  0
  9 10  1  0
 10 11  1  0
 11 12  2  0
 12 13  1  0
 13 14  2  0
 14 15  1  0
 15 16  2  0
  8 17  1  0
 17 18  2  0
  2 19  1  0
 19 20  1  0
 20 21  1  0
 21 22  1  0
 22 23  1  0
 23 24  1  0
 24 25  1  0
 17  4  1  0
 25 20  1  0
 16  8  1  0
 16 11  1  0
  3 26  1  0
  3 27  1  0
  7 28  1  0
  9 29  1  0
  9 30  1  0
 10 31  1  0
 10 32  1  0
 12 33  1  0
 13 34  1  0
 14 35  1  0
 15 36  1  0
 19 37  1  0
 20 38  1  0
 21 39  1  0
 21 40  1  0
 22 41  1  0
 22 42  1  0
 23 43  1  0
 23 44  1  0
 24 45  1  0
 24 46  1  0
 25 47  1  0
 25 48  1  0
M  END
>  <Energy>  (226) 
632.67334937052294

>  <compound_id>  (226) 
46356

>  <target_id>  (226) 
1

>  <reference_id>  (226) 
51

>  <inspiration_ids>  (226) 
[51, 44]

>  <energy_score>  (226) 
612.4780075931537

>  <distance_score>  (226) 
8.199410845817914

>  <path>  (226) 
/opt/xchem-fragalysis-2/maxwin/BulkDock/SCRATCH/511023/C46356-P51/C46356-P51.minimised.mol

>  <scratch_subdir>  (226) 
/opt/xchem-fragalysis-2/maxwin/BulkDock/SCRATCH/511023/C46356-P51

>  <fragmenstein_runtime>  (226) 
27.770000457763672

>  <fragmenstein_outcome>  (226) 
too moved

>  <fragmenstein_mode>  (226) 
expansion

>  <fragmenstein_error>  (226) 


$$$$
C46356-P44
     RDKit          3D

 48 51  0  0  0  0  0  0  0  0999 V2000
   -3.7868   -2.6772   19.1545 O   0  0  0  0  0  0  0  0  0  0  0  0
   -4.5887   -3.9916   18.6356 C   0  0  0  0  0  0  0  0  0  0  0  0
   -4.7257   -4.1382   16.8339 C   0  0  0  0  0  0  0  0  0  0  0  0
   -5.0977   -3.2697   15.2955 N   0  0  0  0  0  0  0  0  0  0  0  0
   -5.6620   -4.0534   14.4191 C   0  0  0  0  0  0  0  0  0  0  0  0
   -4.8305   -4.5617   13.7409 O   0  0  0  0  0  0  0  0  0  0  0  0
   -6.7321   -3.3998   13.9104 N   0  0  0  0  0  0  0  0  0  0  0  0
   -7.4613   -1.7849   13.9361 C   0  0  0  0  0  0  0  0  0  0  0  0
   -6.7379   -0.3215   12.8083 C   0  0  0  0  0  0  0  0  0  0  0  0
   -6.4817    0.0422   11.3736 C   0  0  0  0  0  0  0  0  0  0  0  0
   -7.8171   -0.2234   11.0581 C   0  0  0  0  0  0  0  0  0  0  0  0
   -8.4788    0.3122    9.8693 C   0  0  0  0  0  0  0  0  0  0  0  0
   -9.8100    0.0153    9.5678 C   0  0  0  0  0  0  0  0  0  0  0  0
  -10.5837   -0.7852   10.4147 C   0  0  0  0  0  0  0  0  0  0  0  0
  -10.0462   -1.3152   11.6377 C   0  0  0  0  0  0  0  0  0  0  0  0
   -8.4157   -1.0799   12.2604 C   0  0  0  0  0  0  0  0  0  0  0  0
   -6.0456   -1.7804   14.7143 C   0  0  0  0  0  0  0  0  0  0  0  0
   -5.7828   -0.5938   14.7178 O   0  0  0  0  0  0  0  0  0  0  0  0
   -4.9557   -4.4365   19.5714 N   0  0  0  0  0  0  0  0  0  0  0  0
   -4.8951   -4.3054   21.3382 C   0  0  0  0  0  0  0  0  0  0  0  0
   -6.2312   -4.0358   22.0927 C   0  0  0  0  0  0  0  0  0  0  0  0
   -6.8873   -5.3223   22.6582 C   0  0  0  0  0  0  0  0  0  0  0  0
   -5.9482   -6.4954   23.0695 C   0  0  0  0  0  0  0  0  0  0  0  0
   -4.4060   -6.3429   22.9629 C   0  0  0  0  0  0  0  0  0  0  0  0
   -3.8367   -5.0509   22.2599 C   0  0  0  0  0  0  0  0  0  0  0  0
   -5.0086   -5.1576   16.7642 H   0  0  0  0  0  0  0  0  0  0  0  0
   -3.7512   -4.0254   16.5326 H   0  0  0  0  0  0  0  0  0  0  0  0
   -5.8902   -3.1856   13.3642 H   0  0  0  0  0  0  0  0  0  0  0  0
   -6.6910    0.6494   13.3528 H   0  0  0  0  0  0  0  0  0  0  0  0
   -5.8699   -0.7494   12.8206 H   0  0  0  0  0  0  0  0  0  0  0  0
   -6.3674   -0.3069   10.3276 H   0  0  0  0  0  0  0  0  0  0  0  0
   -5.3987   -0.1783   11.3573 H   0  0  0  0  0  0  0  0  0  0  0  0
   -7.9108    0.9332    9.1792 H   0  0  0  0  0  0  0  0  0  0  0  0
  -10.2512    0.4051    8.6536 H   0  0  0  0  0  0  0  0  0  0  0  0
  -11.6142   -0.9944   10.1465 H   0  0  0  0  0  0  0  0  0  0  0  0
  -10.7605   -1.8430   12.2447 H   0  0  0  0  0  0  0  0  0  0  0  0
   -5.4720   -5.0569   20.0968 H   0  0  0  0  0  0  0  0  0  0  0  0
   -5.2126   -5.3442   21.3806 H   0  0  0  0  0  0  0  0  0  0  0  0
   -6.9624   -3.5169   21.4694 H   0  0  0  0  0  0  0  0  0  0  0  0
   -6.0123   -3.4182   22.9529 H   0  0  0  0  0  0  0  0  0  0  0  0
   -7.5562   -5.0565   23.4858 H   0  0  0  0  0  0  0  0  0  0  0  0
   -7.5679   -5.7225   21.8967 H   0  0  0  0  0  0  0  0  0  0  0  0
   -6.2235   -7.3473   22.4296 H   0  0  0  0  0  0  0  0  0  0  0  0
   -6.2121   -6.8533   24.0726 H   0  0  0  0  0  0  0  0  0  0  0  0
   -3.9069   -6.5451   23.9150 H   0  0  0  0  0  0  0  0  0  0  0  0
   -4.0553   -7.2061   22.3778 H   0  0  0  0  0  0  0  0  0  0  0  0
   -3.4439   -4.3458   22.9962 H   0  0  0  0  0  0  0  0  0  0  0  0
   -3.0146   -5.4663   21.6809 H   0  0  0  0  0  0  0  0  0  0  0  0
  1  2  2  0
  2  3  1  0
  3  4  1  0
  4  5  1  0
  5  6  2  0
  5  7  1  0
  7  8  1  0
  8  9  1  0
  9 10  1  0
 10 11  1  0
 11 12  2  0
 12 13  1  0
 13 14  2  0
 14 15  1  0
 15 16  2  0
  8 17  1  0
 17 18  2  0
  2 19  1  0
 19 20  1  0
 20 21  1  0
 21 22  1  0
 22 23  1  0
 23 24  1  0
 24 25  1  0
 17  4  1  0
 25 20  1  0
 16  8  1  0
 16 11  1  0
  3 26  1  0
  3 27  1  0
  7 28  1  0
  9 29  1  0
  9 30  1  0
 10 31  1  0
 10 32  1  0
 12 33  1  0
 13 34  1  0
 14 35  1  0
 15 36  1  0
 19 37  1  0
 20 38  1  0
 21 39  1  0
 21 40  1  0
 22 41  1  0
 22 42  1  0
 23 43  1  0
 23 44  1  0
 24 45  1  0
 24 46  1  0
 25 47  1  0
 25 48  1  0
M  END
>  <Energy>  (227) 
1063.5828413755119

>  <compound_id>  (227) 
46356

>  <target_id>  (227) 
1

>  <reference_id>  (227) 
44

>  <inspiration_ids>  (227) 
[51, 44]

>  <energy_score>  (227) 
1043.387499598133

>  <distance_score>  (227) 
8.744400084569628

>  <path>  (227) 
/opt/xchem-fragalysis-2/maxwin/BulkDock/SCRATCH/511023/C46356-P44/C46356-P44.minimised.mol

>  <scratch_subdir>  (227) 
/opt/xchem-fragalysis-2/maxwin/BulkDock/SCRATCH/511023/C46356-P44

>  <fragmenstein_runtime>  (227) 
25.619664430618286

>  <fragmenstein_outcome>  (227) 
too moved

>  <fragmenstein_mode>  (227) 
expansion

>  <fragmenstein_error>  (227) 


$$$$
C46357-P51
     RDKit          3D

 58 62  0  0  0  0  0  0  0  0999 V2000
   -4.7358   -0.4559   11.6076 O   0  0  0  0  0  0  0  0  0  0  0  0
   -5.8991   -0.4803   12.0273 C   0  0  0  0  0  0  0  0  0  0  0  0
   -7.0478   -0.6317   11.1699 N   0  0  0  0  0  0  0  0  0  0  0  0
   -7.1933    0.5931   10.6409 C   0  0  0  0  0  0  0  0  0  0  0  0
   -6.3673    0.2463    9.1427 C   0  0  0  0  0  0  0  0  0  0  0  0
   -6.8130    1.2268    8.1028 C   0  0  0  0  0  0  0  0  0  0  0  0
   -8.2365    1.3372    8.5087 C   0  0  0  0  0  0  0  0  0  0  0  0
   -9.1821    1.7588    7.5671 C   0  0  0  0  0  0  0  0  0  0  0  0
  -10.4842    1.9382    7.9722 C   0  0  0  0  0  0  0  0  0  0  0  0
  -10.7958    1.7336    9.3083 C   0  0  0  0  0  0  0  0  0  0  0  0
   -9.8224    1.3214   10.2467 C   0  0  0  0  0  0  0  0  0  0  0  0
   -8.5081    1.0510    9.8888 C   0  0  0  0  0  0  0  0  0  0  0  0
   -6.5441    0.8500   12.5398 C   0  0  0  0  0  0  0  0  0  0  0  0
   -6.8222    1.7315   13.3646 O   0  0  0  0  0  0  0  0  0  0  0  0
   -6.2160   -0.1956   13.2448 N   0  0  0  0  0  0  0  0  0  0  0  0
   -5.7652    0.1182   15.0032 C   0  0  0  0  0  0  0  0  0  0  0  0
   -5.1690    1.1027   16.8441 C   0  0  0  0  0  0  0  0  0  0  0  0
   -4.0326    0.9071   17.1296 O   0  0  0  0  0  0  0  0  0  0  0  0
   -6.2523    2.1515   17.6703 N   0  0  0  0  0  0  0  0  0  0  0  0
   -7.0916    1.3286   18.8858 C   0  0  0  0  0  0  0  0  0  0  0  0
   -8.2760    0.3806   18.4787 C   0  0  0  0  0  0  0  0  0  0  0  0
   -9.2336    0.0336   19.6203 C   0  0  0  0  0  0  0  0  0  0  0  0
   -9.4518    1.3992   20.1786 C   0  0  0  0  0  0  0  0  0  0  0  0
   -8.0945    2.0711   19.9651 C   0  0  0  0  0  0  0  0  0  0  0  0
   -6.0027    3.1193   18.8216 C   0  0  0  0  0  0  0  0  0  0  0  0
   -6.4800    4.5999   18.6708 C   0  0  0  0  0  0  0  0  0  0  0  0
   -5.2758    5.5037   18.9230 C   0  0  0  0  0  0  0  0  0  0  0  0
   -4.3693    4.7896   20.2397 S   0  0  0  0  0  0  0  0  0  0  0  0
   -2.9755    4.9951   19.8973 O   0  0  0  0  0  0  0  0  0  0  0  0
   -4.8648    5.3743   21.4743 O   0  0  0  0  0  0  0  0  0  0  0  0
   -4.9919    3.0455   19.9749 C   0  0  0  0  0  0  0  0  0  0  0  0
   -6.9582   -1.2073   10.3629 H   0  0  0  0  0  0  0  0  0  0  0  0
   -5.2747    0.1477    9.1757 H   0  0  0  0  0  0  0  0  0  0  0  0
   -6.6978   -0.7312    8.7417 H   0  0  0  0  0  0  0  0  0  0  0  0
   -6.6927    0.8141    7.0957 H   0  0  0  0  0  0  0  0  0  0  0  0
   -6.3255    2.2018    8.1469 H   0  0  0  0  0  0  0  0  0  0  0  0
   -8.8997    1.9489    6.5355 H   0  0  0  0  0  0  0  0  0  0  0  0
  -11.2455    2.2615    7.2695 H   0  0  0  0  0  0  0  0  0  0  0  0
  -11.8122    1.9179    9.6506 H   0  0  0  0  0  0  0  0  0  0  0  0
  -10.2028    1.3008   11.2499 H   0  0  0  0  0  0  0  0  0  0  0  0
   -6.7797   -0.0410   15.3205 H   0  0  0  0  0  0  0  0  0  0  0  0
   -5.6573   -0.9888   15.0260 H   0  0  0  0  0  0  0  0  0  0  0  0
   -6.2898    0.8649   19.4089 H   0  0  0  0  0  0  0  0  0  0  0  0
   -7.9815   -0.4723   17.9150 H   0  0  0  0  0  0  0  0  0  0  0  0
   -8.9988    0.8905   17.8619 H   0  0  0  0  0  0  0  0  0  0  0  0
   -8.8682   -0.6629   20.3730 H   0  0  0  0  0  0  0  0  0  0  0  0
  -10.1685   -0.3924   19.2382 H   0  0  0  0  0  0  0  0  0  0  0  0
  -10.2322    1.9293   19.6193 H   0  0  0  0  0  0  0  0  0  0  0  0
   -9.7591    1.3837   21.2293 H   0  0  0  0  0  0  0  0  0  0  0  0
   -8.2984    3.1269   19.8061 H   0  0  0  0  0  0  0  0  0  0  0  0
   -7.6720    1.9199   20.9371 H   0  0  0  0  0  0  0  0  0  0  0  0
   -5.1816    3.3493   18.1906 H   0  0  0  0  0  0  0  0  0  0  0  0
   -6.7983    4.7560   17.6544 H   0  0  0  0  0  0  0  0  0  0  0  0
   -7.3004    4.8658   19.3371 H   0  0  0  0  0  0  0  0  0  0  0  0
   -5.4606    6.5298   19.1801 H   0  0  0  0  0  0  0  0  0  0  0  0
   -4.6279    5.5521   18.0502 H   0  0  0  0  0  0  0  0  0  0  0  0
   -5.0813    2.5571   20.9454 H   0  0  0  0  0  0  0  0  0  0  0  0
   -4.4226    2.2909   19.5703 H   0  0  0  0  0  0  0  0  0  0  0  0
  1  2  2  0
  2  3  1  0
  3  4  1  0
  4  5  1  0
  5  6  1  0
  6  7  1  0
  7  8  2  0
  8  9  1  0
  9 10  2  0
 10 11  1  0
 11 12  2  0
  4 13  1  0
 13 14  2  0
 13 15  1  0
 15 16  1  0
 16 17  1  0
 17 18  2  0
 17 19  1  0
 19 20  1  0
 20 21  1  0
 21 22  1  0
 22 23  1  0
 23 24  1  0
 19 25  1  0
 25 26  1  0
 26 27  1  0
 27 28  1  0
 28 29  2  0
 28 30  2  0
 28 31  1  0
 15  2  1  0
 24 20  1  0
 31 25  1  0
 12  4  1  0
 12  7  1  0
  3 32  1  0
  5 33  1  0
  5 34  1  0
  6 35  1  0
  6 36  1  0
  8 37  1  0
  9 38  1  0
 10 39  1  0
 11 40  1  0
 16 41  1  0
 16 42  1  0
 20 43  1  0
 21 44  1  0
 21 45  1  0
 22 46  1  0
 22 47  1  0
 23 48  1  0
 23 49  1  0
 24 50  1  0
 24 51  1  0
 25 52  1  0
 26 53  1  0
 26 54  1  0
 27 55  1  0
 27 56  1  0
 31 57  1  0
 31 58  1  0
M  END
>  <Energy>  (228) 
619.14964448810724

>  <compound_id>  (228) 
46357

>  <target_id>  (228) 
1

>  <reference_id>  (228) 
51

>  <inspiration_ids>  (228) 
[51, 44]

>  <energy_score>  (228) 
582.4131677741959

>  <distance_score>  (228) 
7.773070003620452

>  <path>  (228) 
/opt/xchem-fragalysis-2/maxwin/BulkDock/SCRATCH/511023/C46357-P51/C46357-P51.minimised.mol

>  <scratch_subdir>  (228) 
/opt/xchem-fragalysis-2/maxwin/BulkDock/SCRATCH/511023/C46357-P51

>  <fragmenstein_runtime>  (228) 
24.521945476531982

>  <fragmenstein_outcome>  (228) 
too moved

>  <fragmenstein_mode>  (228) 
expansion

>  <fragmenstein_error>  (228) 


$$$$
C46357-P44
     RDKit          3D

 58 62  0  0  0  0  0  0  0  0999 V2000
  -11.3224    1.0944    8.1366 O   0  0  0  0  0  0  0  0  0  0  0  0
  -10.1120    0.9528    8.1608 C   0  0  0  0  0  0  0  0  0  0  0  0
   -9.5006   -0.2323    7.8028 N   0  0  0  0  0  0  0  0  0  0  0  0
   -8.1323   -0.0122    7.4690 C   0  0  0  0  0  0  0  0  0  0  0  0
   -7.1448   -1.0257    8.0407 C   0  0  0  0  0  0  0  0  0  0  0  0
   -5.9334   -1.0553    7.0976 C   0  0  0  0  0  0  0  0  0  0  0  0
   -6.5461   -0.6291    5.8020 C   0  0  0  0  0  0  0  0  0  0  0  0
   -5.9749   -0.6847    4.5439 C   0  0  0  0  0  0  0  0  0  0  0  0
   -6.7051   -0.1839    3.4656 C   0  0  0  0  0  0  0  0  0  0  0  0
   -7.9847    0.3603    3.6555 C   0  0  0  0  0  0  0  0  0  0  0  0
   -8.5489    0.4247    4.9298 C   0  0  0  0  0  0  0  0  0  0  0  0
   -7.8153   -0.0665    5.9996 C   0  0  0  0  0  0  0  0  0  0  0  0
   -7.9455    1.4018    8.0242 C   0  0  0  0  0  0  0  0  0  0  0  0
   -6.8922    2.0275    7.9657 O   0  0  0  0  0  0  0  0  0  0  0  0
   -9.1597    1.8835    8.4658 N   0  0  0  0  0  0  0  0  0  0  0  0
   -9.3720    3.3320    8.4854 C   0  0  0  0  0  0  0  0  0  0  0  0
  -10.5785    4.0265    9.1846 C   0  0  0  0  0  0  0  0  0  0  0  0
  -11.3101    4.6778    8.4796 O   0  0  0  0  0  0  0  0  0  0  0  0
  -10.6750    3.7007   10.5826 N   0  0  0  0  0  0  0  0  0  0  0  0
   -9.9279    4.7864   11.4403 C   0  0  0  0  0  0  0  0  0  0  0  0
  -10.2920    6.2966   11.5601 C   0  0  0  0  0  0  0  0  0  0  0  0
   -9.8793    6.7119   12.9898 C   0  0  0  0  0  0  0  0  0  0  0  0
   -8.8259    5.7100   13.4174 C   0  0  0  0  0  0  0  0  0  0  0  0
   -9.3521    4.4113   12.8248 C   0  0  0  0  0  0  0  0  0  0  0  0
  -11.7913    3.9744   11.5978 C   0  0  0  0  0  0  0  0  0  0  0  0
  -13.1040    4.3618   10.8453 C   0  0  0  0  0  0  0  0  0  0  0  0
  -14.2440    4.2545   11.8507 C   0  0  0  0  0  0  0  0  0  0  0  0
  -13.8055    2.8843   12.9023 S   0  0  0  0  0  0  0  0  0  0  0  0
  -14.6500    1.7475   12.6054 O   0  0  0  0  0  0  0  0  0  0  0  0
  -13.6228    3.3839   14.2513 O   0  0  0  0  0  0  0  0  0  0  0  0
  -12.1919    2.6110   12.2122 C   0  0  0  0  0  0  0  0  0  0  0  0
  -10.0639   -0.9757    7.4043 H   0  0  0  0  0  0  0  0  0  0  0  0
   -6.8291   -0.7704    9.0542 H   0  0  0  0  0  0  0  0  0  0  0  0
   -7.6071   -2.0211    8.0630 H   0  0  0  0  0  0  0  0  0  0  0  0
   -5.4957   -2.0561    7.0422 H   0  0  0  0  0  0  0  0  0  0  0  0
   -5.1748   -0.3360    7.4178 H   0  0  0  0  0  0  0  0  0  0  0  0
   -4.9841   -1.1021    4.3956 H   0  0  0  0  0  0  0  0  0  0  0  0
   -6.2805   -0.2174    2.4651 H   0  0  0  0  0  0  0  0  0  0  0  0
   -8.5386    0.7422    2.8011 H   0  0  0  0  0  0  0  0  0  0  0  0
   -9.5319    0.8648    5.0699 H   0  0  0  0  0  0  0  0  0  0  0  0
   -9.4290    3.6256    7.4268 H   0  0  0  0  0  0  0  0  0  0  0  0
   -8.4645    3.8149    8.8600 H   0  0  0  0  0  0  0  0  0  0  0  0
   -9.0097    4.8630   10.8370 H   0  0  0  0  0  0  0  0  0  0  0  0
   -9.7121    6.8706   10.8261 H   0  0  0  0  0  0  0  0  0  0  0  0
  -11.3413    6.5373   11.3736 H   0  0  0  0  0  0  0  0  0  0  0  0
   -9.5122    7.7419   13.0231 H   0  0  0  0  0  0  0  0  0  0  0  0
  -10.7498    6.6451   13.6537 H   0  0  0  0  0  0  0  0  0  0  0  0
   -7.8562    5.9662   12.9762 H   0  0  0  0  0  0  0  0  0  0  0  0
   -8.7175    5.6736   14.5026 H   0  0  0  0  0  0  0  0  0  0  0  0
   -8.5676    3.6762   12.7183 H   0  0  0  0  0  0  0  0  0  0  0  0
  -10.1198    3.9971   13.4726 H   0  0  0  0  0  0  0  0  0  0  0  0
  -11.7222    4.6817   12.4342 H   0  0  0  0  0  0  0  0  0  0  0  0
  -13.0575    5.3666   10.4156 H   0  0  0  0  0  0  0  0  0  0  0  0
  -13.2902    3.6613   10.0203 H   0  0  0  0  0  0  0  0  0  0  0  0
  -15.2051    4.0623   11.3698 H   0  0  0  0  0  0  0  0  0  0  0  0
  -14.3069    5.1515   12.4732 H   0  0  0  0  0  0  0  0  0  0  0  0
  -12.2718    1.8240   11.4550 H   0  0  0  0  0  0  0  0  0  0  0  0
  -11.5289    2.2841   13.0113 H   0  0  0  0  0  0  0  0  0  0  0  0
  1  2  2  0
  2  3  1  0
  3  4  1  0
  4  5  1  0
  5  6  1  0
  6  7  1  0
  7  8  2  0
  8  9  1  0
  9 10  2  0
 10 11  1  0
 11 12  2  0
  4 13  1  0
 13 14  2  0
 13 15  1  0
 15 16  1  0
 16 17  1  0
 17 18  2  0
 17 19  1  0
 19 20  1  0
 20 21  1  0
 21 22  1  0
 22 23  1  0
 23 24  1  0
 19 25  1  0
 25 26  1  0
 26 27  1  0
 27 28  1  0
 28 29  2  0
 28 30  2  0
 28 31  1  0
 15  2  1  0
 24 20  1  0
 31 25  1  0
 12  4  1  0
 12  7  1  0
  3 32  1  0
  5 33  1  0
  5 34  1  0
  6 35  1  0
  6 36  1  0
  8 37  1  0
  9 38  1  0
 10 39  1  0
 11 40  1  0
 16 41  1  0
 16 42  1  0
 20 43  1  0
 21 44  1  0
 21 45  1  0
 22 46  1  0
 22 47  1  0
 23 48  1  0
 23 49  1  0
 24 50  1  0
 24 51  1  0
 25 52  1  0
 26 53  1  0
 26 54  1  0
 27 55  1  0
 27 56  1  0
 31 57  1  0
 31 58  1  0
M  END
>  <Energy>  (229) 
83.658535420279165

>  <compound_id>  (229) 
46357

>  <target_id>  (229) 
1

>  <reference_id>  (229) 
44

>  <inspiration_ids>  (229) 
[51, 44]

>  <energy_score>  (229) 
46.922058706364965

>  <distance_score>  (229) 
10.763493773585855

>  <path>  (229) 
/opt/xchem-fragalysis-2/maxwin/BulkDock/SCRATCH/511023/C46357-P44/C46357-P44.minimised.mol

>  <scratch_subdir>  (229) 
/opt/xchem-fragalysis-2/maxwin/BulkDock/SCRATCH/511023/C46357-P44

>  <fragmenstein_runtime>  (229) 
29.520099401474

>  <fragmenstein_outcome>  (229) 
too moved

>  <fragmenstein_mode>  (229) 
expansion

>  <fragmenstein_error>  (229) 


$$$$
C46358-P51
     RDKit          3D

 58 63  0  0  0  0  0  0  0  0999 V2000
   -6.9272    2.0253   13.7058 O   0  0  0  0  0  0  0  0  0  0  0  0
   -6.2664    1.0727   14.0098 C   0  0  0  0  0  0  0  0  0  0  0  0
   -6.1909   -0.1239   12.5129 C   0  0  0  0  0  0  0  0  0  0  0  0
   -7.0144   -0.2037   10.8139 N   0  0  0  0  0  0  0  0  0  0  0  0
   -8.2530    0.1510   10.2679 C   0  0  0  0  0  0  0  0  0  0  0  0
   -9.1144    0.9663   10.5592 O   0  0  0  0  0  0  0  0  0  0  0  0
   -8.4777   -0.4295    9.0395 N   0  0  0  0  0  0  0  0  0  0  0  0
   -7.2603   -0.5746    8.3690 C   0  0  0  0  0  0  0  0  0  0  0  0
   -7.0932   -1.9090    7.6274 C   0  0  0  0  0  0  0  0  0  0  0  0
   -7.4505   -1.6599    6.1587 C   0  0  0  0  0  0  0  0  0  0  0  0
   -7.1590   -0.2013    6.0121 C   0  0  0  0  0  0  0  0  0  0  0  0
   -7.0533    0.5182    4.8335 C   0  0  0  0  0  0  0  0  0  0  0  0
   -6.8697    1.8984    4.9085 C   0  0  0  0  0  0  0  0  0  0  0  0
   -6.8271    2.5411    6.1516 C   0  0  0  0  0  0  0  0  0  0  0  0
   -6.9486    1.8083    7.3343 C   0  0  0  0  0  0  0  0  0  0  0  0
   -7.0877    0.4296    7.2585 C   0  0  0  0  0  0  0  0  0  0  0  0
   -6.3253   -0.4047    9.5575 C   0  0  0  0  0  0  0  0  0  0  0  0
   -5.1064   -0.4128    9.3606 O   0  0  0  0  0  0  0  0  0  0  0  0
   -5.4003    0.9475   15.7599 N   0  0  0  0  0  0  0  0  0  0  0  0
   -5.5186    2.1442   17.3736 C   0  0  0  0  0  0  0  0  0  0  0  0
   -5.3073    1.8475   18.6897 N   0  0  0  0  0  0  0  0  0  0  0  0
   -4.8957    2.9537   19.8206 C   0  0  0  0  0  0  0  0  0  0  0  0
   -4.4447    2.9117   21.1937 C   0  0  0  0  0  0  0  0  0  0  0  0
   -3.9069    3.9121   22.0797 C   0  0  0  0  0  0  0  0  0  0  0  0
   -3.7494    5.1784   21.6195 C   0  0  0  0  0  0  0  0  0  0  0  0
   -4.1846    5.3666   20.3352 C   0  0  0  0  0  0  0  0  0  0  0  0
   -4.7387    4.3123   19.5676 C   0  0  0  0  0  0  0  0  0  0  0  0
   -5.2305    4.7151   18.4770 N   0  0  0  0  0  0  0  0  0  0  0  0
   -5.9260    3.8188   17.7025 C   0  0  0  0  0  0  0  0  0  0  0  0
   -7.0176    4.7327   17.3643 N   0  0  0  0  0  0  0  0  0  0  0  0
   -6.5961    6.1257   16.8286 C   0  0  0  0  0  0  0  0  0  0  0  0
   -7.3428    7.1845   17.6292 C   0  0  0  0  0  0  0  0  0  0  0  0
   -7.5056    6.5277   18.9628 C   0  0  0  0  0  0  0  0  0  0  0  0
   -7.7912    5.0898   18.5538 C   0  0  0  0  0  0  0  0  0  0  0  0
   -5.2246   -0.2416   12.0339 H   0  0  0  0  0  0  0  0  0  0  0  0
   -6.3018   -0.8514   13.2636 H   0  0  0  0  0  0  0  0  0  0  0  0
   -9.2858   -0.0598    8.5543 H   0  0  0  0  0  0  0  0  0  0  0  0
   -7.7097   -2.7135    8.0425 H   0  0  0  0  0  0  0  0  0  0  0  0
   -6.0469   -2.2398    7.6704 H   0  0  0  0  0  0  0  0  0  0  0  0
   -8.5141   -1.8477    5.9771 H   0  0  0  0  0  0  0  0  0  0  0  0
   -6.8480   -2.2810    5.4915 H   0  0  0  0  0  0  0  0  0  0  0  0
   -7.1218    0.0228    3.8687 H   0  0  0  0  0  0  0  0  0  0  0  0
   -6.7873    2.4818    3.9947 H   0  0  0  0  0  0  0  0  0  0  0  0
   -6.7194    3.6227    6.1950 H   0  0  0  0  0  0  0  0  0  0  0  0
   -6.9598    2.3259    8.2880 H   0  0  0  0  0  0  0  0  0  0  0  0
   -5.0072    0.1120   15.8542 H   0  0  0  0  0  0  0  0  0  0  0  0
   -4.5391    1.9722   21.6490 H   0  0  0  0  0  0  0  0  0  0  0  0
   -3.6420    3.6621   23.1019 H   0  0  0  0  0  0  0  0  0  0  0  0
   -3.3575    5.9829   22.2279 H   0  0  0  0  0  0  0  0  0  0  0  0
   -4.1498    6.3636   19.9006 H   0  0  0  0  0  0  0  0  0  0  0  0
   -5.5191    6.3132   16.8815 H   0  0  0  0  0  0  0  0  0  0  0  0
   -6.9071    6.2810   15.7888 H   0  0  0  0  0  0  0  0  0  0  0  0
   -8.3236    7.3786   17.1780 H   0  0  0  0  0  0  0  0  0  0  0  0
   -6.7998    8.1325   17.6792 H   0  0  0  0  0  0  0  0  0  0  0  0
   -6.5964    6.6186   19.5598 H   0  0  0  0  0  0  0  0  0  0  0  0
   -8.3209    6.9669   19.5433 H   0  0  0  0  0  0  0  0  0  0  0  0
   -8.8565    5.0502   18.2988 H   0  0  0  0  0  0  0  0  0  0  0  0
   -7.5658    4.3872   19.3406 H   0  0  0  0  0  0  0  0  0  0  0  0
  1  2  2  0
  2  3  1  0
  3  4  1  0
  4  5  1  0
  5  6  2  0
  5  7  1  0
  7  8  1  0
  8  9  1  0
  9 10  1  0
 10 11  1  0
 11 12  2  0
 12 13  1  0
 13 14  2  0
 14 15  1  0
 15 16  2  0
  8 17  1  0
 17 18  2  0
  2 19  1  0
 19 20  1  0
 20 21  2  0
 21 22  1  0
 22 23  2  0
 23 24  1  0
 24 25  2  0
 25 26  1  0
 26 27  2  0
 27 28  1  0
 28 29  2  0
 29 30  1  0
 30 31  1  0
 31 32  1  0
 32 33  1  0
 33 34  1  0
 17  4  1  0
 29 20  1  0
 34 30  1  0
 16  8  1  0
 27 22  1  0
 16 11  1  0
  3 35  1  0
  3 36  1  0
  7 37  1  0
  9 38  1  0
  9 39  1  0
 10 40  1  0
 10 41  1  0
 12 42  1  0
 13 43  1  0
 14 44  1  0
 15 45  1  0
 19 46  1  0
 23 47  1  0
 24 48  1  0
 25 49  1  0
 26 50  1  0
 31 51  1  0
 31 52  1  0
 32 53  1  0
 32 54  1  0
 33 55  1  0
 33 56  1  0
 34 57  1  0
 34 58  1  0
M  END
>  <Energy>  (230) 
617.82007264152207

>  <compound_id>  (230) 
46358

>  <target_id>  (230) 
1

>  <reference_id>  (230) 
51

>  <inspiration_ids>  (230) 
[51, 44]

>  <energy_score>  (230) 
526.128414514352

>  <distance_score>  (230) 
5.799080367719831

>  <path>  (230) 
/opt/xchem-fragalysis-2/maxwin/BulkDock/SCRATCH/511023/C46358-P51/C46358-P51.minimised.mol

>  <scratch_subdir>  (230) 
/opt/xchem-fragalysis-2/maxwin/BulkDock/SCRATCH/511023/C46358-P51

>  <fragmenstein_runtime>  (230) 
30.160423517227173

>  <fragmenstein_outcome>  (230) 
too moved

>  <fragmenstein_mode>  (230) 
expansion

>  <fragmenstein_error>  (230) 


$$$$
C46358-P44
     RDKit          3D

 58 63  0  0  0  0  0  0  0  0999 V2000
   -2.0826   -8.9177   15.0122 O   0  0  0  0  0  0  0  0  0  0  0  0
   -3.2749   -8.4828   15.1388 C   0  0  0  0  0  0  0  0  0  0  0  0
   -4.4380   -8.9288   13.3125 C   0  0  0  0  0  0  0  0  0  0  0  0
   -5.2290   -8.0090   11.6339 N   0  0  0  0  0  0  0  0  0  0  0  0
   -6.0416   -8.5867   10.6298 C   0  0  0  0  0  0  0  0  0  0  0  0
   -6.3398   -9.7760   10.5529 O   0  0  0  0  0  0  0  0  0  0  0  0
   -6.6464   -7.6154    9.5064 N   0  0  0  0  0  0  0  0  0  0  0  0
   -6.6423   -5.8018    9.3363 C   0  0  0  0  0  0  0  0  0  0  0  0
   -6.3525   -4.5042    7.8026 C   0  0  0  0  0  0  0  0  0  0  0  0
   -6.8085   -4.9343    6.4075 C   0  0  0  0  0  0  0  0  0  0  0  0
   -8.1570   -4.8856    6.9377 C   0  0  0  0  0  0  0  0  0  0  0  0
   -8.9889   -4.0579    6.1130 C   0  0  0  0  0  0  0  0  0  0  0  0
   -9.4888   -2.9283    6.6777 C   0  0  0  0  0  0  0  0  0  0  0  0
   -9.3727   -2.8711    8.0365 C   0  0  0  0  0  0  0  0  0  0  0  0
   -8.9290   -4.0314    8.7940 C   0  0  0  0  0  0  0  0  0  0  0  0
   -8.0751   -4.9916    8.3782 C   0  0  0  0  0  0  0  0  0  0  0  0
   -5.5578   -6.4759   10.9195 C   0  0  0  0  0  0  0  0  0  0  0  0
   -5.2263   -5.5332   11.6353 O   0  0  0  0  0  0  0  0  0  0  0  0
   -4.1883   -7.2090   16.6733 N   0  0  0  0  0  0  0  0  0  0  0  0
   -3.5226   -6.1098   18.2650 C   0  0  0  0  0  0  0  0  0  0  0  0
   -3.5703   -5.2055   19.5943 N   0  0  0  0  0  0  0  0  0  0  0  0
   -4.0576   -5.2542   21.3607 C   0  0  0  0  0  0  0  0  0  0  0  0
   -4.1115   -6.5659   22.5915 C   0  0  0  0  0  0  0  0  0  0  0  0
   -3.3079   -6.4012   23.8621 C   0  0  0  0  0  0  0  0  0  0  0  0
   -2.8825   -4.9758   24.2665 C   0  0  0  0  0  0  0  0  0  0  0  0
   -3.5671   -3.5536   23.5470 C   0  0  0  0  0  0  0  0  0  0  0  0
   -4.1821   -3.9810   21.8465 C   0  0  0  0  0  0  0  0  0  0  0  0
   -4.7887   -3.8612   20.5318 N   0  0  0  0  0  0  0  0  0  0  0  0
   -4.7246   -4.8592   19.3264 C   0  0  0  0  0  0  0  0  0  0  0  0
   -6.0612   -5.4751   20.5975 N   0  0  0  0  0  0  0  0  0  0  0  0
   -7.3580   -6.7467   21.3908 C   0  0  0  0  0  0  0  0  0  0  0  0
   -7.1709   -6.9906   22.8185 C   0  0  0  0  0  0  0  0  0  0  0  0
   -7.3200   -5.5635   23.0159 C   0  0  0  0  0  0  0  0  0  0  0  0
   -6.6288   -4.4608   21.5906 C   0  0  0  0  0  0  0  0  0  0  0  0
   -3.6044   -9.3849   12.7398 H   0  0  0  0  0  0  0  0  0  0  0  0
   -5.1207   -9.7959   13.4114 H   0  0  0  0  0  0  0  0  0  0  0  0
   -7.2378   -8.1214    8.8589 H   0  0  0  0  0  0  0  0  0  0  0  0
   -5.3545   -3.9867    7.6861 H   0  0  0  0  0  0  0  0  0  0  0  0
   -6.7959   -3.4537    7.8172 H   0  0  0  0  0  0  0  0  0  0  0  0
   -6.6575   -5.9163    6.0235 H   0  0  0  0  0  0  0  0  0  0  0  0
   -6.5583   -4.1782    5.6555 H   0  0  0  0  0  0  0  0  0  0  0  0
   -8.9510   -4.1073    5.0303 H   0  0  0  0  0  0  0  0  0  0  0  0
   -9.9761   -2.1542    6.1003 H   0  0  0  0  0  0  0  0  0  0  0  0
   -9.8373   -2.0319    8.5521 H   0  0  0  0  0  0  0  0  0  0  0  0
   -9.4083   -4.2872    9.7307 H   0  0  0  0  0  0  0  0  0  0  0  0
   -5.2170   -7.0975   16.5738 H   0  0  0  0  0  0  0  0  0  0  0  0
   -4.0754   -7.5943   22.2055 H   0  0  0  0  0  0  0  0  0  0  0  0
   -2.9936   -7.2640   24.4400 H   0  0  0  0  0  0  0  0  0  0  0  0
   -2.3785   -5.0365   25.2041 H   0  0  0  0  0  0  0  0  0  0  0  0
   -3.2896   -2.5788   23.9202 H   0  0  0  0  0  0  0  0  0  0  0  0
   -8.3511   -6.6382   20.8850 H   0  0  0  0  0  0  0  0  0  0  0  0
   -7.4296   -7.8590   21.1505 H   0  0  0  0  0  0  0  0  0  0  0  0
   -6.2616   -7.4930   23.1386 H   0  0  0  0  0  0  0  0  0  0  0  0
   -7.9895   -7.6086   23.2156 H   0  0  0  0  0  0  0  0  0  0  0  0
   -7.2733   -4.9038   23.9011 H   0  0  0  0  0  0  0  0  0  0  0  0
   -8.1899   -5.7469   23.5989 H   0  0  0  0  0  0  0  0  0  0  0  0
   -7.3030   -3.7924   21.0199 H   0  0  0  0  0  0  0  0  0  0  0  0
   -6.2519   -3.4873   21.8867 H   0  0  0  0  0  0  0  0  0  0  0  0
  1  2  2  0
  2  3  1  0
  3  4  1  0
  4  5  1  0
  5  6  2  0
  5  7  1  0
  7  8  1  0
  8  9  1  0
  9 10  1  0
 10 11  1  0
 11 12  2  0
 12 13  1  0
 13 14  2  0
 14 15  1  0
 15 16  2  0
  8 17  1  0
 17 18  2  0
  2 19  1  0
 19 20  1  0
 20 21  2  0
 21 22  1  0
 22 23  2  0
 23 24  1  0
 24 25  2  0
 25 26  1  0
 26 27  2  0
 27 28  1  0
 28 29  2  0
 29 30  1  0
 30 31  1  0
 31 32  1  0
 32 33  1  0
 33 34  1  0
 17  4  1  0
 29 20  1  0
 34 30  1  0
 16  8  1  0
 27 22  1  0
 16 11  1  0
  3 35  1  0
  3 36  1  0
  7 37  1  0
  9 38  1  0
  9 39  1  0
 10 40  1  0
 10 41  1  0
 12 42  1  0
 13 43  1  0
 14 44  1  0
 15 45  1  0
 19 46  1  0
 23 47  1  0
 24 48  1  0
 25 49  1  0
 26 50  1  0
 31 51  1  0
 31 52  1  0
 32 53  1  0
 32 54  1  0
 33 55  1  0
 33 56  1  0
 34 57  1  0
 34 58  1  0
M  END
>  <Energy>  (231) 
2608.3001193681962

>  <compound_id>  (231) 
46358

>  <target_id>  (231) 
1

>  <reference_id>  (231) 
44

>  <inspiration_ids>  (231) 
[51, 44]

>  <energy_score>  (231) 
2516.6084612410345

>  <distance_score>  (231) 
7.396015999269332

>  <path>  (231) 
/opt/xchem-fragalysis-2/maxwin/BulkDock/SCRATCH/511023/C46358-P44/C46358-P44.minimised.mol

>  <scratch_subdir>  (231) 
/opt/xchem-fragalysis-2/maxwin/BulkDock/SCRATCH/511023/C46358-P44

>  <fragmenstein_runtime>  (231) 
38.50654435157776

>  <fragmenstein_outcome>  (231) 
too moved

>  <fragmenstein_mode>  (231) 
expansion

>  <fragmenstein_error>  (231) 


$$$$
C46344-P51
     RDKit          3D

 52 56  0  0  0  0  0  0  0  0999 V2000
   -5.1829    1.5457   18.1185 O   0  0  0  0  0  0  0  0  0  0  0  0
   -4.9158    0.4016   17.7041 C   0  0  0  0  0  0  0  0  0  0  0  0
   -5.4475    0.2723   15.4146 C   0  0  0  0  0  0  0  0  0  0  0  0
   -6.3147    0.1881   13.4540 N   0  0  0  0  0  0  0  0  0  0  0  0
   -5.9249   -0.4635   12.3476 C   0  0  0  0  0  0  0  0  0  0  0  0
   -4.7650   -0.4678   11.8818 O   0  0  0  0  0  0  0  0  0  0  0  0
   -6.9245   -0.7822   11.3954 N   0  0  0  0  0  0  0  0  0  0  0  0
   -6.6326   -0.2552   10.1577 C   0  0  0  0  0  0  0  0  0  0  0  0
   -5.3955   -0.4716    9.1961 C   0  0  0  0  0  0  0  0  0  0  0  0
   -5.7094    0.2645    7.8969 C   0  0  0  0  0  0  0  0  0  0  0  0
   -7.1809    0.0986    7.8181 C   0  0  0  0  0  0  0  0  0  0  0  0
   -7.9310    0.2237    6.6549 C   0  0  0  0  0  0  0  0  0  0  0  0
   -9.3032    0.0382    6.7350 C   0  0  0  0  0  0  0  0  0  0  0  0
   -9.8948   -0.2568    7.9662 C   0  0  0  0  0  0  0  0  0  0  0  0
   -9.1245   -0.3626    9.1331 C   0  0  0  0  0  0  0  0  0  0  0  0
   -7.7463   -0.1804    9.0777 C   0  0  0  0  0  0  0  0  0  0  0  0
   -6.7143    0.6709   11.7355 C   0  0  0  0  0  0  0  0  0  0  0  0
   -7.8991    1.1882   11.0571 O   0  0  0  0  0  0  0  0  0  0  0  0
   -4.2955   -0.9372   19.2761 N   0  0  0  0  0  0  0  0  0  0  0  0
   -3.9242   -0.6488   21.3335 C   0  0  0  0  0  0  0  0  0  0  0  0
   -3.3163   -2.2591   21.9694 C   0  0  0  0  0  0  0  0  0  0  0  0
   -2.0205   -2.1787   22.4974 C   0  0  0  0  0  0  0  0  0  0  0  0
   -2.8958   -2.5493   23.3761 N   0  0  0  0  0  0  0  0  0  0  0  0
   -3.1141   -1.3476   23.0411 N   0  0  0  0  0  0  0  0  0  0  0  0
   -3.3698   -1.0329   25.0176 C   0  0  0  0  0  0  0  0  0  0  0  0
   -3.4512   -2.0401   26.1823 C   0  0  0  0  0  0  0  0  0  0  0  0
   -2.4810   -1.6203   27.3748 C   0  0  0  0  0  0  0  0  0  0  0  0
   -2.0099   -0.2054   27.2712 C   0  0  0  0  0  0  0  0  0  0  0  0
   -2.5140    0.3053   25.9534 C   0  0  0  0  0  0  0  0  0  0  0  0
   -5.5691   -0.8779   15.1139 H   0  0  0  0  0  0  0  0  0  0  0  0
   -6.6389    0.1041   15.4915 H   0  0  0  0  0  0  0  0  0  0  0  0
   -7.9113   -0.8728   11.6277 H   0  0  0  0  0  0  0  0  0  0  0  0
   -5.3075   -1.5215    8.8969 H   0  0  0  0  0  0  0  0  0  0  0  0
   -4.4131   -0.1635    9.5518 H   0  0  0  0  0  0  0  0  0  0  0  0
   -5.4761    1.3279    7.9481 H   0  0  0  0  0  0  0  0  0  0  0  0
   -5.1949   -0.1940    7.0478 H   0  0  0  0  0  0  0  0  0  0  0  0
   -7.4607    0.4424    5.7018 H   0  0  0  0  0  0  0  0  0  0  0  0
   -9.9184    0.1074    5.8424 H   0  0  0  0  0  0  0  0  0  0  0  0
  -10.9682   -0.4198    8.0230 H   0  0  0  0  0  0  0  0  0  0  0  0
   -9.6319   -0.5802   10.0662 H   0  0  0  0  0  0  0  0  0  0  0  0
   -4.0129   -1.8119   18.8594 H   0  0  0  0  0  0  0  0  0  0  0  0
   -3.9977   -3.1692   21.8844 H   0  0  0  0  0  0  0  0  0  0  0  0
   -1.0605   -2.4851   22.8796 H   0  0  0  0  0  0  0  0  0  0  0  0
   -4.1797   -0.3778   25.1681 H   0  0  0  0  0  0  0  0  0  0  0  0
   -3.0998   -2.9333   25.6947 H   0  0  0  0  0  0  0  0  0  0  0  0
   -4.4396   -2.2476   26.5855 H   0  0  0  0  0  0  0  0  0  0  0  0
   -2.9128   -1.8498   28.3372 H   0  0  0  0  0  0  0  0  0  0  0  0
   -1.5813   -2.2473   27.4110 H   0  0  0  0  0  0  0  0  0  0  0  0
   -0.9148   -0.1653   27.3031 H   0  0  0  0  0  0  0  0  0  0  0  0
   -2.3551    0.4068   28.1078 H   0  0  0  0  0  0  0  0  0  0  0  0
   -3.2968    1.0497   26.1811 H   0  0  0  0  0  0  0  0  0  0  0  0
   -1.7717    0.9413   25.4949 H   0  0  0  0  0  0  0  0  0  0  0  0
  1  2  2  0
  2  3  1  0
  3  4  1  0
  4  5  1  0
  5  6  2  0
  5  7  1  0
  7  8  1  0
  8  9  1  0
  9 10  1  0
 10 11  1  0
 11 12  2  0
 12 13  1  0
 13 14  2  0
 14 15  1  0
 15 16  2  0
  8 17  1  0
 17 18  2  0
  2 19  1  0
 19 20  1  0
 20 21  2  0
 21 22  1  0
 22 23  2  0
 23 24  1  0
 24 25  1  0
 25 26  1  0
 26 27  1  0
 27 28  1  0
 28 29  1  0
 17  4  1  0
 24 20  1  0
 29 25  1  0
 16  8  1  0
 16 11  1  0
  3 30  1  0
  3 31  1  0
  7 32  1  0
  9 33  1  0
  9 34  1  0
 10 35  1  0
 10 36  1  0
 12 37  1  0
 13 38  1  0
 14 39  1  0
 15 40  1  0
 19 41  1  0
 21 42  1  0
 22 43  1  0
 25 44  1  0
 26 45  1  0
 26 46  1  0
 27 47  1  0
 27 48  1  0
 28 49  1  0
 28 50  1  0
 29 51  1  0
 29 52  1  0
M  END
>  <Energy>  (232) 
2109.7046965888703

>  <compound_id>  (232) 
46344

>  <target_id>  (232) 
1

>  <reference_id>  (232) 
51

>  <inspiration_ids>  (232) 
[51, 44]

>  <energy_score>  (232) 
2044.4336645887054

>  <distance_score>  (232) 
4.920364915142924

>  <path>  (232) 
/opt/xchem-fragalysis-2/maxwin/BulkDock/SCRATCH/511023/C46344-P51/C46344-P51.minimised.mol

>  <scratch_subdir>  (232) 
/opt/xchem-fragalysis-2/maxwin/BulkDock/SCRATCH/511023/C46344-P51

>  <fragmenstein_runtime>  (232) 
21.358449697494507

>  <fragmenstein_outcome>  (232) 
too moved

>  <fragmenstein_mode>  (232) 
expansion

>  <fragmenstein_error>  (232) 


$$$$
C46344-P44
     RDKit          3D

 52 56  0  0  0  0  0  0  0  0999 V2000
   -5.7518   -5.9468   17.1011 O   0  0  0  0  0  0  0  0  0  0  0  0
   -5.2479   -4.8469   16.9489 C   0  0  0  0  0  0  0  0  0  0  0  0
   -5.6591   -4.1403   14.9121 C   0  0  0  0  0  0  0  0  0  0  0  0
   -7.3061   -3.0985   13.9911 N   0  0  0  0  0  0  0  0  0  0  0  0
   -8.4803   -4.0141   13.7547 C   0  0  0  0  0  0  0  0  0  0  0  0
   -8.6189   -5.1271   14.2446 O   0  0  0  0  0  0  0  0  0  0  0  0
   -9.6813   -3.4483   13.2217 N   0  0  0  0  0  0  0  0  0  0  0  0
  -10.0361   -1.7907   12.4009 C   0  0  0  0  0  0  0  0  0  0  0  0
  -10.2731   -1.5537   10.7112 C   0  0  0  0  0  0  0  0  0  0  0  0
  -10.6164   -0.1392   10.2912 C   0  0  0  0  0  0  0  0  0  0  0  0
  -11.7026    0.0183   11.2943 C   0  0  0  0  0  0  0  0  0  0  0  0
  -12.7719    0.8791   11.1443 C   0  0  0  0  0  0  0  0  0  0  0  0
  -13.7942    0.7895   12.0736 C   0  0  0  0  0  0  0  0  0  0  0  0
  -13.7394   -0.1549   13.1138 C   0  0  0  0  0  0  0  0  0  0  0  0
  -12.6470   -1.0157   13.2799 C   0  0  0  0  0  0  0  0  0  0  0  0
  -11.5820   -0.9155   12.3878 C   0  0  0  0  0  0  0  0  0  0  0  0
   -8.0707   -1.5537   13.0041 C   0  0  0  0  0  0  0  0  0  0  0  0
   -7.3466   -0.6380   12.4502 O   0  0  0  0  0  0  0  0  0  0  0  0
   -4.4770   -4.0399   18.5019 N   0  0  0  0  0  0  0  0  0  0  0  0
   -4.4483   -4.5178   20.2621 C   0  0  0  0  0  0  0  0  0  0  0  0
   -4.7260   -5.3674   21.2587 C   0  0  0  0  0  0  0  0  0  0  0  0
   -5.9804   -4.9441   21.4462 C   0  0  0  0  0  0  0  0  0  0  0  0
   -5.9874   -3.6343   21.6366 N   0  0  0  0  0  0  0  0  0  0  0  0
   -4.3951   -3.5170   21.8663 N   0  0  0  0  0  0  0  0  0  0  0  0
   -3.6124   -3.1693   23.6208 C   0  0  0  0  0  0  0  0  0  0  0  0
   -2.5635   -2.1212   23.6279 C   0  0  0  0  0  0  0  0  0  0  0  0
   -2.5627   -0.9248   25.2976 C   0  0  0  0  0  0  0  0  0  0  0  0
   -2.6561   -1.7361   26.4459 C   0  0  0  0  0  0  0  0  0  0  0  0
   -3.5204   -2.3639   25.4040 C   0  0  0  0  0  0  0  0  0  0  0  0
   -5.0928   -4.5367   14.1139 H   0  0  0  0  0  0  0  0  0  0  0  0
   -5.0655   -3.3066   15.1491 H   0  0  0  0  0  0  0  0  0  0  0  0
  -10.3983   -3.7323   13.8831 H   0  0  0  0  0  0  0  0  0  0  0  0
  -11.2179   -2.0279   10.5655 H   0  0  0  0  0  0  0  0  0  0  0  0
   -9.6618   -1.9640    9.9157 H   0  0  0  0  0  0  0  0  0  0  0  0
   -9.7982    0.5789   10.3621 H   0  0  0  0  0  0  0  0  0  0  0  0
  -11.0174   -0.1261    9.2717 H   0  0  0  0  0  0  0  0  0  0  0  0
  -12.8270    1.5751   10.3140 H   0  0  0  0  0  0  0  0  0  0  0  0
  -14.6572    1.4461   11.9922 H   0  0  0  0  0  0  0  0  0  0  0  0
  -14.5634   -0.2037   13.8238 H   0  0  0  0  0  0  0  0  0  0  0  0
  -12.6342   -1.7079   14.1161 H   0  0  0  0  0  0  0  0  0  0  0  0
   -4.0405   -3.2165   18.2347 H   0  0  0  0  0  0  0  0  0  0  0  0
   -4.3910   -6.3193   21.6440 H   0  0  0  0  0  0  0  0  0  0  0  0
   -6.6358   -5.6292   21.9426 H   0  0  0  0  0  0  0  0  0  0  0  0
   -3.1563   -4.1386   23.9262 H   0  0  0  0  0  0  0  0  0  0  0  0
   -2.7460   -1.7376   22.5917 H   0  0  0  0  0  0  0  0  0  0  0  0
   -1.5663   -2.3689   23.2557 H   0  0  0  0  0  0  0  0  0  0  0  0
   -3.3722   -0.1828   25.4139 H   0  0  0  0  0  0  0  0  0  0  0  0
   -1.7379   -0.2048   25.4428 H   0  0  0  0  0  0  0  0  0  0  0  0
   -1.7687   -2.1884   26.8774 H   0  0  0  0  0  0  0  0  0  0  0  0
   -3.1261   -1.2899   27.3182 H   0  0  0  0  0  0  0  0  0  0  0  0
   -3.1013   -3.2992   25.7147 H   0  0  0  0  0  0  0  0  0  0  0  0
   -4.4929   -2.1651   25.8746 H   0  0  0  0  0  0  0  0  0  0  0  0
  1  2  2  0
  2  3  1  0
  3  4  1  0
  4  5  1  0
  5  6  2  0
  5  7  1  0
  7  8  1  0
  8  9  1  0
  9 10  1  0
 10 11  1  0
 11 12  2  0
 12 13  1  0
 13 14  2  0
 14 15  1  0
 15 16  2  0
  8 17  1  0
 17 18  2  0
  2 19  1  0
 19 20  1  0
 20 21  2  0
 21 22  1  0
 22 23  2  0
 23 24  1  0
 24 25  1  0
 25 26  1  0
 26 27  1  0
 27 28  1  0
 28 29  1  0
 17  4  1  0
 24 20  1  0
 29 25  1  0
 16  8  1  0
 16 11  1  0
  3 30  1  0
  3 31  1  0
  7 32  1  0
  9 33  1  0
  9 34  1  0
 10 35  1  0
 10 36  1  0
 12 37  1  0
 13 38  1  0
 14 39  1  0
 15 40  1  0
 19 41  1  0
 21 42  1  0
 22 43  1  0
 25 44  1  0
 26 45  1  0
 26 46  1  0
 27 47  1  0
 27 48  1  0
 28 49  1  0
 28 50  1  0
 29 51  1  0
 29 52  1  0
M  END
>  <Energy>  (233) 
1471.3716472614485

>  <compound_id>  (233) 
46344

>  <target_id>  (233) 
1

>  <reference_id>  (233) 
44

>  <inspiration_ids>  (233) 
[51, 44]

>  <energy_score>  (233) 
1406.1006152612651

>  <distance_score>  (233) 
7.417371102161927

>  <path>  (233) 
/opt/xchem-fragalysis-2/maxwin/BulkDock/SCRATCH/511023/C46344-P44/C46344-P44.minimised.mol

>  <scratch_subdir>  (233) 
/opt/xchem-fragalysis-2/maxwin/BulkDock/SCRATCH/511023/C46344-P44

>  <fragmenstein_runtime>  (233) 
26.400874853134155

>  <fragmenstein_outcome>  (233) 
too moved

>  <fragmenstein_mode>  (233) 
expansion

>  <fragmenstein_error>  (233) 


$$$$
C46357-P51
     RDKit          3D

 58 62  0  0  0  0  0  0  0  0999 V2000
   -4.7358   -0.4559   11.6076 O   0  0  0  0  0  0  0  0  0  0  0  0
   -5.8991   -0.4803   12.0273 C   0  0  0  0  0  0  0  0  0  0  0  0
   -7.0478   -0.6317   11.1699 N   0  0  0  0  0  0  0  0  0  0  0  0
   -7.1933    0.5931   10.6409 C   0  0  0  0  0  0  0  0  0  0  0  0
   -6.3673    0.2463    9.1427 C   0  0  0  0  0  0  0  0  0  0  0  0
   -6.8130    1.2268    8.1028 C   0  0  0  0  0  0  0  0  0  0  0  0
   -8.2365    1.3372    8.5087 C   0  0  0  0  0  0  0  0  0  0  0  0
   -9.1821    1.7588    7.5671 C   0  0  0  0  0  0  0  0  0  0  0  0
  -10.4842    1.9382    7.9722 C   0  0  0  0  0  0  0  0  0  0  0  0
  -10.7958    1.7336    9.3083 C   0  0  0  0  0  0  0  0  0  0  0  0
   -9.8224    1.3214   10.2467 C   0  0  0  0  0  0  0  0  0  0  0  0
   -8.5081    1.0510    9.8888 C   0  0  0  0  0  0  0  0  0  0  0  0
   -6.5441    0.8500   12.5398 C   0  0  0  0  0  0  0  0  0  0  0  0
   -6.8222    1.7315   13.3646 O   0  0  0  0  0  0  0  0  0  0  0  0
   -6.2160   -0.1956   13.2448 N   0  0  0  0  0  0  0  0  0  0  0  0
   -5.7652    0.1182   15.0032 C   0  0  0  0  0  0  0  0  0  0  0  0
   -5.1690    1.1027   16.8441 C   0  0  0  0  0  0  0  0  0  0  0  0
   -4.0326    0.9071   17.1296 O   0  0  0  0  0  0  0  0  0  0  0  0
   -6.2523    2.1515   17.6703 N   0  0  0  0  0  0  0  0  0  0  0  0
   -7.0916    1.3286   18.8858 C   0  0  0  0  0  0  0  0  0  0  0  0
   -8.2760    0.3806   18.4787 C   0  0  0  0  0  0  0  0  0  0  0  0
   -9.2336    0.0336   19.6203 C   0  0  0  0  0  0  0  0  0  0  0  0
   -9.4518    1.3992   20.1786 C   0  0  0  0  0  0  0  0  0  0  0  0
   -8.0945    2.0711   19.9651 C   0  0  0  0  0  0  0  0  0  0  0  0
   -6.0027    3.1193   18.8216 C   0  0  0  0  0  0  0  0  0  0  0  0
   -6.4800    4.5999   18.6708 C   0  0  0  0  0  0  0  0  0  0  0  0
   -5.2758    5.5037   18.9230 C   0  0  0  0  0  0  0  0  0  0  0  0
   -4.3693    4.7896   20.2397 S   0  0  0  0  0  0  0  0  0  0  0  0
   -2.9755    4.9951   19.8973 O   0  0  0  0  0  0  0  0  0  0  0  0
   -4.8648    5.3743   21.4743 O   0  0  0  0  0  0  0  0  0  0  0  0
   -4.9919    3.0455   19.9749 C   0  0  0  0  0  0  0  0  0  0  0  0
   -6.9582   -1.2073   10.3629 H   0  0  0  0  0  0  0  0  0  0  0  0
   -5.2747    0.1477    9.1757 H   0  0  0  0  0  0  0  0  0  0  0  0
   -6.6978   -0.7312    8.7417 H   0  0  0  0  0  0  0  0  0  0  0  0
   -6.6927    0.8141    7.0957 H   0  0  0  0  0  0  0  0  0  0  0  0
   -6.3255    2.2018    8.1469 H   0  0  0  0  0  0  0  0  0  0  0  0
   -8.8997    1.9489    6.5355 H   0  0  0  0  0  0  0  0  0  0  0  0
  -11.2455    2.2615    7.2695 H   0  0  0  0  0  0  0  0  0  0  0  0
  -11.8122    1.9179    9.6506 H   0  0  0  0  0  0  0  0  0  0  0  0
  -10.2028    1.3008   11.2499 H   0  0  0  0  0  0  0  0  0  0  0  0
   -6.7797   -0.0410   15.3205 H   0  0  0  0  0  0  0  0  0  0  0  0
   -5.6573   -0.9888   15.0260 H   0  0  0  0  0  0  0  0  0  0  0  0
   -6.2898    0.8649   19.4089 H   0  0  0  0  0  0  0  0  0  0  0  0
   -7.9815   -0.4723   17.9150 H   0  0  0  0  0  0  0  0  0  0  0  0
   -8.9988    0.8905   17.8619 H   0  0  0  0  0  0  0  0  0  0  0  0
   -8.8682   -0.6629   20.3730 H   0  0  0  0  0  0  0  0  0  0  0  0
  -10.1685   -0.3924   19.2382 H   0  0  0  0  0  0  0  0  0  0  0  0
  -10.2322    1.9293   19.6193 H   0  0  0  0  0  0  0  0  0  0  0  0
   -9.7591    1.3837   21.2293 H   0  0  0  0  0  0  0  0  0  0  0  0
   -8.2984    3.1269   19.8061 H   0  0  0  0  0  0  0  0  0  0  0  0
   -7.6720    1.9199   20.9371 H   0  0  0  0  0  0  0  0  0  0  0  0
   -5.1816    3.3493   18.1906 H   0  0  0  0  0  0  0  0  0  0  0  0
   -6.7983    4.7560   17.6544 H   0  0  0  0  0  0  0  0  0  0  0  0
   -7.3004    4.8658   19.3371 H   0  0  0  0  0  0  0  0  0  0  0  0
   -5.4606    6.5298   19.1801 H   0  0  0  0  0  0  0  0  0  0  0  0
   -4.6279    5.5521   18.0502 H   0  0  0  0  0  0  0  0  0  0  0  0
   -5.0813    2.5571   20.9454 H   0  0  0  0  0  0  0  0  0  0  0  0
   -4.4226    2.2909   19.5703 H   0  0  0  0  0  0  0  0  0  0  0  0
  1  2  2  0
  2  3  1  0
  3  4  1  0
  4  5  1  0
  5  6  1  0
  6  7  1  0
  7  8  2  0
  8  9  1  0
  9 10  2  0
 10 11  1  0
 11 12  2  0
  4 13  1  0
 13 14  2  0
 13 15  1  0
 15 16  1  0
 16 17  1  0
 17 18  2  0
 17 19  1  0
 19 20  1  0
 20 21  1  0
 21 22  1  0
 22 23  1  0
 23 24  1  0
 19 25  1  0
 25 26  1  0
 26 27  1  0
 27 28  1  0
 28 29  2  0
 28 30  2  0
 28 31  1  0
 15  2  1  0
 24 20  1  0
 31 25  1  0
 12  4  1  0
 12  7  1  0
  3 32  1  0
  5 33  1  0
  5 34  1  0
  6 35  1  0
  6 36  1  0
  8 37  1  0
  9 38  1  0
 10 39  1  0
 11 40  1  0
 16 41  1  0
 16 42  1  0
 20 43  1  0
 21 44  1  0
 21 45  1  0
 22 46  1  0
 22 47  1  0
 23 48  1  0
 23 49  1  0
 24 50  1  0
 24 51  1  0
 25 52  1  0
 26 53  1  0
 26 54  1  0
 27 55  1  0
 27 56  1  0
 31 57  1  0
 31 58  1  0
M  END
>  <Energy>  (234) 
619.14964448810724

>  <compound_id>  (234) 
46357

>  <target_id>  (234) 
1

>  <reference_id>  (234) 
51

>  <inspiration_ids>  (234) 
[51, 44]

>  <energy_score>  (234) 
582.4131677741959

>  <distance_score>  (234) 
7.773070003620452

>  <path>  (234) 
/opt/xchem-fragalysis-2/maxwin/BulkDock/SCRATCH/511023/C46357-P51/C46357-P51.minimised.mol

>  <scratch_subdir>  (234) 
/opt/xchem-fragalysis-2/maxwin/BulkDock/SCRATCH/511023/C46357-P51

>  <fragmenstein_runtime>  (234) 
26.48249912261963

>  <fragmenstein_outcome>  (234) 
too moved

>  <fragmenstein_mode>  (234) 
expansion

>  <fragmenstein_error>  (234) 


$$$$
C46357-P44
     RDKit          3D

 58 62  0  0  0  0  0  0  0  0999 V2000
  -11.3224    1.0944    8.1366 O   0  0  0  0  0  0  0  0  0  0  0  0
  -10.1120    0.9528    8.1608 C   0  0  0  0  0  0  0  0  0  0  0  0
   -9.5006   -0.2323    7.8028 N   0  0  0  0  0  0  0  0  0  0  0  0
   -8.1323   -0.0122    7.4690 C   0  0  0  0  0  0  0  0  0  0  0  0
   -7.1448   -1.0257    8.0407 C   0  0  0  0  0  0  0  0  0  0  0  0
   -5.9334   -1.0553    7.0976 C   0  0  0  0  0  0  0  0  0  0  0  0
   -6.5461   -0.6291    5.8020 C   0  0  0  0  0  0  0  0  0  0  0  0
   -5.9749   -0.6847    4.5439 C   0  0  0  0  0  0  0  0  0  0  0  0
   -6.7051   -0.1839    3.4656 C   0  0  0  0  0  0  0  0  0  0  0  0
   -7.9847    0.3603    3.6555 C   0  0  0  0  0  0  0  0  0  0  0  0
   -8.5489    0.4247    4.9298 C   0  0  0  0  0  0  0  0  0  0  0  0
   -7.8153   -0.0665    5.9996 C   0  0  0  0  0  0  0  0  0  0  0  0
   -7.9455    1.4018    8.0242 C   0  0  0  0  0  0  0  0  0  0  0  0
   -6.8922    2.0275    7.9657 O   0  0  0  0  0  0  0  0  0  0  0  0
   -9.1597    1.8835    8.4658 N   0  0  0  0  0  0  0  0  0  0  0  0
   -9.3720    3.3320    8.4854 C   0  0  0  0  0  0  0  0  0  0  0  0
  -10.5785    4.0265    9.1846 C   0  0  0  0  0  0  0  0  0  0  0  0
  -11.3101    4.6778    8.4796 O   0  0  0  0  0  0  0  0  0  0  0  0
  -10.6750    3.7007   10.5826 N   0  0  0  0  0  0  0  0  0  0  0  0
   -9.9279    4.7864   11.4403 C   0  0  0  0  0  0  0  0  0  0  0  0
  -10.2920    6.2966   11.5601 C   0  0  0  0  0  0  0  0  0  0  0  0
   -9.8793    6.7119   12.9898 C   0  0  0  0  0  0  0  0  0  0  0  0
   -8.8259    5.7100   13.4174 C   0  0  0  0  0  0  0  0  0  0  0  0
   -9.3521    4.4113   12.8248 C   0  0  0  0  0  0  0  0  0  0  0  0
  -11.7913    3.9744   11.5978 C   0  0  0  0  0  0  0  0  0  0  0  0
  -13.1040    4.3618   10.8453 C   0  0  0  0  0  0  0  0  0  0  0  0
  -14.2440    4.2545   11.8507 C   0  0  0  0  0  0  0  0  0  0  0  0
  -13.8055    2.8843   12.9023 S   0  0  0  0  0  0  0  0  0  0  0  0
  -14.6500    1.7475   12.6054 O   0  0  0  0  0  0  0  0  0  0  0  0
  -13.6228    3.3839   14.2513 O   0  0  0  0  0  0  0  0  0  0  0  0
  -12.1919    2.6110   12.2122 C   0  0  0  0  0  0  0  0  0  0  0  0
  -10.0639   -0.9757    7.4043 H   0  0  0  0  0  0  0  0  0  0  0  0
   -6.8291   -0.7704    9.0542 H   0  0  0  0  0  0  0  0  0  0  0  0
   -7.6071   -2.0211    8.0630 H   0  0  0  0  0  0  0  0  0  0  0  0
   -5.4957   -2.0561    7.0422 H   0  0  0  0  0  0  0  0  0  0  0  0
   -5.1748   -0.3360    7.4178 H   0  0  0  0  0  0  0  0  0  0  0  0
   -4.9841   -1.1021    4.3956 H   0  0  0  0  0  0  0  0  0  0  0  0
   -6.2805   -0.2174    2.4651 H   0  0  0  0  0  0  0  0  0  0  0  0
   -8.5386    0.7422    2.8011 H   0  0  0  0  0  0  0  0  0  0  0  0
   -9.5319    0.8648    5.0699 H   0  0  0  0  0  0  0  0  0  0  0  0
   -9.4290    3.6256    7.4268 H   0  0  0  0  0  0  0  0  0  0  0  0
   -8.4645    3.8149    8.8600 H   0  0  0  0  0  0  0  0  0  0  0  0
   -9.0097    4.8630   10.8370 H   0  0  0  0  0  0  0  0  0  0  0  0
   -9.7121    6.8706   10.8261 H   0  0  0  0  0  0  0  0  0  0  0  0
  -11.3413    6.5373   11.3736 H   0  0  0  0  0  0  0  0  0  0  0  0
   -9.5122    7.7419   13.0231 H   0  0  0  0  0  0  0  0  0  0  0  0
  -10.7498    6.6451   13.6537 H   0  0  0  0  0  0  0  0  0  0  0  0
   -7.8562    5.9662   12.9762 H   0  0  0  0  0  0  0  0  0  0  0  0
   -8.7175    5.6736   14.5026 H   0  0  0  0  0  0  0  0  0  0  0  0
   -8.5676    3.6762   12.7183 H   0  0  0  0  0  0  0  0  0  0  0  0
  -10.1198    3.9971   13.4726 H   0  0  0  0  0  0  0  0  0  0  0  0
  -11.7222    4.6817   12.4342 H   0  0  0  0  0  0  0  0  0  0  0  0
  -13.0575    5.3666   10.4156 H   0  0  0  0  0  0  0  0  0  0  0  0
  -13.2902    3.6613   10.0203 H   0  0  0  0  0  0  0  0  0  0  0  0
  -15.2051    4.0623   11.3698 H   0  0  0  0  0  0  0  0  0  0  0  0
  -14.3069    5.1515   12.4732 H   0  0  0  0  0  0  0  0  0  0  0  0
  -12.2718    1.8240   11.4550 H   0  0  0  0  0  0  0  0  0  0  0  0
  -11.5289    2.2841   13.0113 H   0  0  0  0  0  0  0  0  0  0  0  0
  1  2  2  0
  2  3  1  0
  3  4  1  0
  4  5  1  0
  5  6  1  0
  6  7  1  0
  7  8  2  0
  8  9  1  0
  9 10  2  0
 10 11  1  0
 11 12  2  0
  4 13  1  0
 13 14  2  0
 13 15  1  0
 15 16  1  0
 16 17  1  0
 17 18  2  0
 17 19  1  0
 19 20  1  0
 20 21  1  0
 21 22  1  0
 22 23  1  0
 23 24  1  0
 19 25  1  0
 25 26  1  0
 26 27  1  0
 27 28  1  0
 28 29  2  0
 28 30  2  0
 28 31  1  0
 15  2  1  0
 24 20  1  0
 31 25  1  0
 12  4  1  0
 12  7  1  0
  3 32  1  0
  5 33  1  0
  5 34  1  0
  6 35  1  0
  6 36  1  0
  8 37  1  0
  9 38  1  0
 10 39  1  0
 11 40  1  0
 16 41  1  0
 16 42  1  0
 20 43  1  0
 21 44  1  0
 21 45  1  0
 22 46  1  0
 22 47  1  0
 23 48  1  0
 23 49  1  0
 24 50  1  0
 24 51  1  0
 25 52  1  0
 26 53  1  0
 26 54  1  0
 27 55  1  0
 27 56  1  0
 31 57  1  0
 31 58  1  0
M  END
>  <Energy>  (235) 
83.658535420279165

>  <compound_id>  (235) 
46357

>  <target_id>  (235) 
1

>  <reference_id>  (235) 
44

>  <inspiration_ids>  (235) 
[51, 44]

>  <energy_score>  (235) 
46.922058706364965

>  <distance_score>  (235) 
10.763493773585855

>  <path>  (235) 
/opt/xchem-fragalysis-2/maxwin/BulkDock/SCRATCH/511023/C46357-P44/C46357-P44.minimised.mol

>  <scratch_subdir>  (235) 
/opt/xchem-fragalysis-2/maxwin/BulkDock/SCRATCH/511023/C46357-P44

>  <fragmenstein_runtime>  (235) 
29.076217651367188

>  <fragmenstein_outcome>  (235) 
too moved

>  <fragmenstein_mode>  (235) 
expansion

>  <fragmenstein_error>  (235) 


$$$$
C46362-P51
     RDKit          3D

 51 54  0  0  0  0  0  0  0  0999 V2000
   -5.9490    0.9845   18.1896 C   0  0  0  0  0  0  0  0  0  0  0  0
   -5.7586    1.5854   16.9269 N   0  0  0  0  0  0  0  0  0  0  0  0
   -5.0572    0.8179   15.2444 C   0  0  0  0  0  0  0  0  0  0  0  0
   -3.7256    0.8814   14.9638 O   0  0  0  0  0  0  0  0  0  0  0  0
   -6.1646    0.0080   13.5803 C   0  0  0  0  0  0  0  0  0  0  0  0
   -6.5631   -0.1750   11.5650 N   0  0  0  0  0  0  0  0  0  0  0  0
   -7.8234   -0.0663   10.7455 C   0  0  0  0  0  0  0  0  0  0  0  0
   -8.9746   -0.5008   10.7717 O   0  0  0  0  0  0  0  0  0  0  0  0
   -7.7612    0.6185    9.5740 N   0  0  0  0  0  0  0  0  0  0  0  0
   -6.7856    0.0468    8.7943 C   0  0  0  0  0  0  0  0  0  0  0  0
   -6.1098    1.1186    7.9095 C   0  0  0  0  0  0  0  0  0  0  0  0
   -6.4505    0.9174    6.4445 C   0  0  0  0  0  0  0  0  0  0  0  0
   -7.0215   -0.4477    6.4452 C   0  0  0  0  0  0  0  0  0  0  0  0
   -7.4045   -1.1237    5.2928 C   0  0  0  0  0  0  0  0  0  0  0  0
   -8.0590   -2.3359    5.4266 C   0  0  0  0  0  0  0  0  0  0  0  0
   -8.3448   -2.8259    6.6991 C   0  0  0  0  0  0  0  0  0  0  0  0
   -7.9565   -2.1229    7.8481 C   0  0  0  0  0  0  0  0  0  0  0  0
   -7.2494   -0.9376    7.7418 C   0  0  0  0  0  0  0  0  0  0  0  0
   -5.8921   -0.3617    9.9906 C   0  0  0  0  0  0  0  0  0  0  0  0
   -4.6947   -0.5533    9.7172 O   0  0  0  0  0  0  0  0  0  0  0  0
   -5.0122    2.4884   18.1410 C   0  0  0  0  0  0  0  0  0  0  0  0
   -5.8603    4.0774   17.9626 C   0  0  0  0  0  0  0  0  0  0  0  0
   -6.2508    5.1278   19.0173 C   0  0  0  0  0  0  0  0  0  0  0  0
   -5.1458    5.4170   19.9771 C   0  0  0  0  0  0  0  0  0  0  0  0
   -4.4291    4.1322   20.3089 C   0  0  0  0  0  0  0  0  0  0  0  0
   -5.0571    2.7806   19.6768 C   0  0  0  0  0  0  0  0  0  0  0  0
   -5.4216    0.1334   18.3680 H   0  0  0  0  0  0  0  0  0  0  0  0
   -6.5094    1.3618   19.0362 H   0  0  0  0  0  0  0  0  0  0  0  0
   -6.9889    0.6517   17.9423 H   0  0  0  0  0  0  0  0  0  0  0  0
   -6.1898   -1.0140   13.9666 H   0  0  0  0  0  0  0  0  0  0  0  0
   -6.8196    0.8657   13.6726 H   0  0  0  0  0  0  0  0  0  0  0  0
   -8.6842    0.6231    9.1531 H   0  0  0  0  0  0  0  0  0  0  0  0
   -6.3839    2.1442    8.1829 H   0  0  0  0  0  0  0  0  0  0  0  0
   -5.0337    1.0287    8.0241 H   0  0  0  0  0  0  0  0  0  0  0  0
   -7.2035    1.6420    6.1163 H   0  0  0  0  0  0  0  0  0  0  0  0
   -5.5672    0.9981    5.8050 H   0  0  0  0  0  0  0  0  0  0  0  0
   -7.2190   -0.7068    4.3071 H   0  0  0  0  0  0  0  0  0  0  0  0
   -8.3820   -2.8901    4.5499 H   0  0  0  0  0  0  0  0  0  0  0  0
   -8.9013   -3.7561    6.8030 H   0  0  0  0  0  0  0  0  0  0  0  0
   -8.2778   -2.5292    8.7927 H   0  0  0  0  0  0  0  0  0  0  0  0
   -4.0039    2.2577   17.8155 H   0  0  0  0  0  0  0  0  0  0  0  0
   -5.4288    4.7481   17.2451 H   0  0  0  0  0  0  0  0  0  0  0  0
   -6.8205    3.8226   17.5696 H   0  0  0  0  0  0  0  0  0  0  0  0
   -6.5202    6.0629   18.5047 H   0  0  0  0  0  0  0  0  0  0  0  0
   -7.1880    4.8458   19.5047 H   0  0  0  0  0  0  0  0  0  0  0  0
   -5.5269    5.9113   20.8777 H   0  0  0  0  0  0  0  0  0  0  0  0
   -4.4419    6.1253   19.5212 H   0  0  0  0  0  0  0  0  0  0  0  0
   -4.3757    4.0103   21.3996 H   0  0  0  0  0  0  0  0  0  0  0  0
   -3.4046    4.3669   20.0284 H   0  0  0  0  0  0  0  0  0  0  0  0
   -6.1193    2.8072   19.7070 H   0  0  0  0  0  0  0  0  0  0  0  0
   -4.8068    1.9851   20.3483 H   0  0  0  0  0  0  0  0  0  0  0  0
  1  2  1  0
  2  3  1  0
  3  4  2  0
  3  5  1  0
  5  6  1  0
  6  7  1  0
  7  8  2  0
  7  9  1  0
  9 10  1  0
 10 11  1  0
 11 12  1  0
 12 13  1  0
 13 14  2  0
 14 15  1  0
 15 16  2  0
 16 17  1  0
 17 18  2  0
 10 19  1  0
 19 20  2  0
  2 21  1  0
 21 22  1  0
 22 23  1  0
 23 24  1  0
 24 25  1  0
 25 26  1  0
 19  6  1  0
 26 21  1  0
 18 10  1  0
 18 13  1  0
  1 27  1  0
  1 28  1  0
  1 29  1  0
  5 30  1  0
  5 31  1  0
  9 32  1  0
 11 33  1  0
 11 34  1  0
 12 35  1  0
 12 36  1  0
 14 37  1  0
 15 38  1  0
 16 39  1  0
 17 40  1  0
 21 41  1  0
 22 42  1  0
 22 43  1  0
 23 44  1  0
 23 45  1  0
 24 46  1  0
 24 47  1  0
 25 48  1  0
 25 49  1  0
 26 50  1  0
 26 51  1  0
M  END
>  <Energy>  (236) 
747.83621674420749

>  <compound_id>  (236) 
46362

>  <target_id>  (236) 
1

>  <reference_id>  (236) 
51

>  <inspiration_ids>  (236) 
[51, 44]

>  <energy_score>  (236) 
725.24410355342

>  <distance_score>  (236) 
6.990595755964529

>  <path>  (236) 
/opt/xchem-fragalysis-2/maxwin/BulkDock/SCRATCH/511023/C46362-P51/C46362-P51.minimised.mol

>  <scratch_subdir>  (236) 
/opt/xchem-fragalysis-2/maxwin/BulkDock/SCRATCH/511023/C46362-P51

>  <fragmenstein_runtime>  (236) 
21.38440442085266

>  <fragmenstein_outcome>  (236) 
too moved

>  <fragmenstein_mode>  (236) 
expansion

>  <fragmenstein_error>  (236) 


$$$$
C46362-P44
     RDKit          3D

 51 54  0  0  0  0  0  0  0  0999 V2000
   -4.8189   -5.2370   20.5726 C   0  0  0  0  0  0  0  0  0  0  0  0
   -5.3427   -4.3988   19.6400 N   0  0  0  0  0  0  0  0  0  0  0  0
   -4.8618   -4.1461   17.6845 C   0  0  0  0  0  0  0  0  0  0  0  0
   -4.0862   -3.3586   17.6607 O   0  0  0  0  0  0  0  0  0  0  0  0
   -5.3448   -4.6268   15.5354 C   0  0  0  0  0  0  0  0  0  0  0  0
   -5.4910   -4.4509   13.3857 N   0  0  0  0  0  0  0  0  0  0  0  0
   -4.8796   -5.5274   11.9862 C   0  0  0  0  0  0  0  0  0  0  0  0
   -4.7164   -6.9294   12.2410 O   0  0  0  0  0  0  0  0  0  0  0  0
   -5.4771   -6.2614   11.0018 N   0  0  0  0  0  0  0  0  0  0  0  0
   -6.1950   -5.8098    9.9408 C   0  0  0  0  0  0  0  0  0  0  0  0
   -4.3101   -5.2055    9.2299 C   0  0  0  0  0  0  0  0  0  0  0  0
   -4.2888   -3.9778    7.7239 C   0  0  0  0  0  0  0  0  0  0  0  0
   -5.9518   -3.9455    7.4291 C   0  0  0  0  0  0  0  0  0  0  0  0
   -6.3874   -3.1000    6.4152 C   0  0  0  0  0  0  0  0  0  0  0  0
   -7.7541   -2.9386    6.2988 C   0  0  0  0  0  0  0  0  0  0  0  0
   -8.6400   -3.5637    7.1994 C   0  0  0  0  0  0  0  0  0  0  0  0
   -8.2475   -4.4451    8.2525 C   0  0  0  0  0  0  0  0  0  0  0  0
   -6.9190   -4.8296    8.4466 C   0  0  0  0  0  0  0  0  0  0  0  0
   -6.4844   -5.1773   11.9619 C   0  0  0  0  0  0  0  0  0  0  0  0
   -7.6492   -5.1551   12.5649 O   0  0  0  0  0  0  0  0  0  0  0  0
   -4.5712   -3.5628   21.4216 C   0  0  0  0  0  0  0  0  0  0  0  0
   -3.2530   -2.2057   22.0236 C   0  0  0  0  0  0  0  0  0  0  0  0
   -2.3131   -2.1070   23.4812 C   0  0  0  0  0  0  0  0  0  0  0  0
   -2.8421   -1.4712   25.1320 C   0  0  0  0  0  0  0  0  0  0  0  0
   -3.7031   -2.5417   25.0088 C   0  0  0  0  0  0  0  0  0  0  0  0
   -3.9732   -3.3434   23.3703 C   0  0  0  0  0  0  0  0  0  0  0  0
   -5.8029   -5.2075   21.0727 H   0  0  0  0  0  0  0  0  0  0  0  0
   -4.7161   -5.6926   21.5817 H   0  0  0  0  0  0  0  0  0  0  0  0
   -3.7824   -5.0337   20.5476 H   0  0  0  0  0  0  0  0  0  0  0  0
   -4.3468   -4.8901   15.3729 H   0  0  0  0  0  0  0  0  0  0  0  0
   -6.0966   -5.3875   15.4878 H   0  0  0  0  0  0  0  0  0  0  0  0
   -4.8742   -7.0671   10.8175 H   0  0  0  0  0  0  0  0  0  0  0  0
   -3.7201   -4.6634    9.8957 H   0  0  0  0  0  0  0  0  0  0  0  0
   -3.5657   -5.9651    9.0381 H   0  0  0  0  0  0  0  0  0  0  0  0
   -3.8738   -2.9707    7.9084 H   0  0  0  0  0  0  0  0  0  0  0  0
   -3.6540   -4.4078    6.9522 H   0  0  0  0  0  0  0  0  0  0  0  0
   -5.6965   -2.5685    5.7729 H   0  0  0  0  0  0  0  0  0  0  0  0
   -8.1626   -2.2804    5.5356 H   0  0  0  0  0  0  0  0  0  0  0  0
   -9.7015   -3.3170    7.1167 H   0  0  0  0  0  0  0  0  0  0  0  0
   -9.0341   -4.6484    8.9619 H   0  0  0  0  0  0  0  0  0  0  0  0
   -5.6281   -3.3988   21.7581 H   0  0  0  0  0  0  0  0  0  0  0  0
   -3.5741   -1.1681   21.8285 H   0  0  0  0  0  0  0  0  0  0  0  0
   -2.2888   -2.2308   21.6988 H   0  0  0  0  0  0  0  0  0  0  0  0
   -1.9088   -3.0309   23.8102 H   0  0  0  0  0  0  0  0  0  0  0  0
   -1.3808   -1.7327   23.0595 H   0  0  0  0  0  0  0  0  0  0  0  0
   -3.2466   -0.4839   25.3617 H   0  0  0  0  0  0  0  0  0  0  0  0
   -2.2839   -1.5995   26.0816 H   0  0  0  0  0  0  0  0  0  0  0  0
   -3.0608   -3.2131   25.5220 H   0  0  0  0  0  0  0  0  0  0  0  0
   -4.4459   -2.3664   25.7745 H   0  0  0  0  0  0  0  0  0  0  0  0
   -4.8991   -2.9764   23.7528 H   0  0  0  0  0  0  0  0  0  0  0  0
   -3.2861   -4.1416   23.8213 H   0  0  0  0  0  0  0  0  0  0  0  0
  1  2  1  0
  2  3  1  0
  3  4  2  0
  3  5  1  0
  5  6  1  0
  6  7  1  0
  7  8  2  0
  7  9  1  0
  9 10  1  0
 10 11  1  0
 11 12  1  0
 12 13  1  0
 13 14  2  0
 14 15  1  0
 15 16  2  0
 16 17  1  0
 17 18  2  0
 10 19  1  0
 19 20  2  0
  2 21  1  0
 21 22  1  0
 22 23  1  0
 23 24  1  0
 24 25  1  0
 25 26  1  0
 19  6  1  0
 26 21  1  0
 18 10  1  0
 18 13  1  0
  1 27  1  0
  1 28  1  0
  1 29  1  0
  5 30  1  0
  5 31  1  0
  9 32  1  0
 11 33  1  0
 11 34  1  0
 12 35  1  0
 12 36  1  0
 14 37  1  0
 15 38  1  0
 16 39  1  0
 17 40  1  0
 21 41  1  0
 22 42  1  0
 22 43  1  0
 23 44  1  0
 23 45  1  0
 24 46  1  0
 24 47  1  0
 25 48  1  0
 25 49  1  0
 26 50  1  0
 26 51  1  0
M  END
>  <Energy>  (237) 
2346.5765090262339

>  <compound_id>  (237) 
46362

>  <target_id>  (237) 
1

>  <reference_id>  (237) 
44

>  <inspiration_ids>  (237) 
[51, 44]

>  <energy_score>  (237) 
2323.984395835467

>  <distance_score>  (237) 
6.479551437677638

>  <path>  (237) 
/opt/xchem-fragalysis-2/maxwin/BulkDock/SCRATCH/511023/C46362-P44/C46362-P44.minimised.mol

>  <scratch_subdir>  (237) 
/opt/xchem-fragalysis-2/maxwin/BulkDock/SCRATCH/511023/C46362-P44

>  <fragmenstein_runtime>  (237) 
20.297889232635498

>  <fragmenstein_outcome>  (237) 
too moved

>  <fragmenstein_mode>  (237) 
expansion

>  <fragmenstein_error>  (237) 


$$$$
C46363-P51
     RDKit          3D

 49 52  0  0  0  0  0  0  0  0999 V2000
   -3.2392    1.1417   17.4606 O   0  0  0  0  0  0  0  0  0  0  0  0
   -4.5387    0.1475   17.7595 C   0  0  0  0  0  0  0  0  0  0  0  0
   -5.5004   -0.0018   15.4855 C   0  0  0  0  0  0  0  0  0  0  0  0
   -5.7706   -0.4084   13.3591 N   0  0  0  0  0  0  0  0  0  0  0  0
   -4.5529   -0.2631   11.9698 C   0  0  0  0  0  0  0  0  0  0  0  0
   -3.3640   -0.1999   12.3632 O   0  0  0  0  0  0  0  0  0  0  0  0
   -4.8025   -0.3851   10.5452 N   0  0  0  0  0  0  0  0  0  0  0  0
   -6.2874   -0.3835   10.1169 C   0  0  0  0  0  0  0  0  0  0  0  0
   -6.1958   -1.2968    8.8217 C   0  0  0  0  0  0  0  0  0  0  0  0
   -5.7835   -0.3956    7.6469 C   0  0  0  0  0  0  0  0  0  0  0  0
   -6.6867    0.7306    7.9410 C   0  0  0  0  0  0  0  0  0  0  0  0
   -7.2454    1.5692    6.9838 C   0  0  0  0  0  0  0  0  0  0  0  0
   -8.3941    2.2616    7.3271 C   0  0  0  0  0  0  0  0  0  0  0  0
   -8.9821    2.0340    8.5728 C   0  0  0  0  0  0  0  0  0  0  0  0
   -8.3742    1.1897    9.5188 C   0  0  0  0  0  0  0  0  0  0  0  0
   -7.1233    0.6384    9.2744 C   0  0  0  0  0  0  0  0  0  0  0  0
   -6.6693   -0.4760   11.9739 C   0  0  0  0  0  0  0  0  0  0  0  0
   -7.8244   -0.9549   11.9107 O   0  0  0  0  0  0  0  0  0  0  0  0
   -3.9892   -0.3446   19.9370 N   0  0  0  0  0  0  0  0  0  0  0  0
   -4.0311   -0.0890   21.3846 C   0  0  0  0  0  0  0  0  0  0  0  0
   -4.8265   -0.7727   21.8236 O   0  0  0  0  0  0  0  0  0  0  0  0
   -2.9059    1.4325   22.2292 N   0  0  0  0  0  0  0  0  0  0  0  0
   -2.9194    2.2980   23.9518 C   0  0  0  0  0  0  0  0  0  0  0  0
   -1.4345    2.7919   24.1850 C   0  0  0  0  0  0  0  0  0  0  0  0
   -1.5051    4.2468   24.6022 C   0  0  0  0  0  0  0  0  0  0  0  0
   -2.5702    4.7855   23.6881 C   0  0  0  0  0  0  0  0  0  0  0  0
   -3.6270    3.6982   23.7041 C   0  0  0  0  0  0  0  0  0  0  0  0
   -6.6523    0.0555   15.4505 H   0  0  0  0  0  0  0  0  0  0  0  0
   -5.6634   -1.1695   15.2467 H   0  0  0  0  0  0  0  0  0  0  0  0
   -4.0015   -0.4310    9.9171 H   0  0  0  0  0  0  0  0  0  0  0  0
   -5.3832   -2.0065    8.7889 H   0  0  0  0  0  0  0  0  0  0  0  0
   -7.1450   -1.8118    8.6172 H   0  0  0  0  0  0  0  0  0  0  0  0
   -4.7348   -0.1052    7.7050 H   0  0  0  0  0  0  0  0  0  0  0  0
   -5.9950   -0.8813    6.6903 H   0  0  0  0  0  0  0  0  0  0  0  0
   -6.8664    1.6013    5.9672 H   0  0  0  0  0  0  0  0  0  0  0  0
   -8.8870    2.9035    6.6024 H   0  0  0  0  0  0  0  0  0  0  0  0
   -9.9361    2.4989    8.8104 H   0  0  0  0  0  0  0  0  0  0  0  0
   -8.9096    0.9928   10.4376 H   0  0  0  0  0  0  0  0  0  0  0  0
   -5.0236    0.8246   20.0219 H   0  0  0  0  0  0  0  0  0  0  0  0
   -2.2144    1.8134   21.6176 H   0  0  0  0  0  0  0  0  0  0  0  0
   -3.2400    1.8545   24.9285 H   0  0  0  0  0  0  0  0  0  0  0  0
   -0.8455    2.6863   23.2684 H   0  0  0  0  0  0  0  0  0  0  0  0
   -0.9485    2.2240   24.9802 H   0  0  0  0  0  0  0  0  0  0  0  0
   -0.5475    4.7607   24.4807 H   0  0  0  0  0  0  0  0  0  0  0  0
   -1.8133    4.3323   25.6508 H   0  0  0  0  0  0  0  0  0  0  0  0
   -2.9631    5.7504   24.0214 H   0  0  0  0  0  0  0  0  0  0  0  0
   -2.1757    4.9122   22.6729 H   0  0  0  0  0  0  0  0  0  0  0  0
   -4.2006    3.7240   22.7724 H   0  0  0  0  0  0  0  0  0  0  0  0
   -4.3198    3.8828   24.5341 H   0  0  0  0  0  0  0  0  0  0  0  0
  1  2  2  0
  2  3  1  0
  3  4  1  0
  4  5  1  0
  5  6  2  0
  5  7  1  0
  7  8  1  0
  8  9  1  0
  9 10  1  0
 10 11  1  0
 11 12  2  0
 12 13  1  0
 13 14  2  0
 14 15  1  0
 15 16  2  0
  8 17  1  0
 17 18  2  0
  2 19  1  0
 19 20  1  0
 20 21  2  0
 20 22  1  0
 22 23  1  0
 23 24  1  0
 24 25  1  0
 25 26  1  0
 26 27  1  0
 17  4  1  0
 27 23  1  0
 16  8  1  0
 16 11  1  0
  3 28  1  0
  3 29  1  0
  7 30  1  0
  9 31  1  0
  9 32  1  0
 10 33  1  0
 10 34  1  0
 12 35  1  0
 13 36  1  0
 14 37  1  0
 15 38  1  0
 19 39  1  0
 22 40  1  0
 23 41  1  0
 24 42  1  0
 24 43  1  0
 25 44  1  0
 25 45  1  0
 26 46  1  0
 26 47  1  0
 27 48  1  0
 27 49  1  0
M  END
>  <Energy>  (238) 
1864.6777787450449

>  <compound_id>  (238) 
46363

>  <target_id>  (238) 
1

>  <reference_id>  (238) 
51

>  <inspiration_ids>  (238) 
[51, 44]

>  <energy_score>  (238) 
1809.6220734723029

>  <distance_score>  (238) 
5.409188905153146

>  <path>  (238) 
/opt/xchem-fragalysis-2/maxwin/BulkDock/SCRATCH/511023/C46363-P51/C46363-P51.minimised.mol

>  <scratch_subdir>  (238) 
/opt/xchem-fragalysis-2/maxwin/BulkDock/SCRATCH/511023/C46363-P51

>  <fragmenstein_runtime>  (238) 
45.43842816352844

>  <fragmenstein_outcome>  (238) 
too moved

>  <fragmenstein_mode>  (238) 
expansion

>  <fragmenstein_error>  (238) 


$$$$
C46363-P44
     RDKit          3D

 49 52  0  0  0  0  0  0  0  0999 V2000
   -4.4674   -4.2128   17.2804 O   0  0  0  0  0  0  0  0  0  0  0  0
   -5.2968   -4.8785   17.7929 C   0  0  0  0  0  0  0  0  0  0  0  0
   -6.7408   -6.0378   16.6395 C   0  0  0  0  0  0  0  0  0  0  0  0
   -8.0730   -5.4312   15.1700 N   0  0  0  0  0  0  0  0  0  0  0  0
   -9.3386   -5.5253   14.6569 C   0  0  0  0  0  0  0  0  0  0  0  0
  -10.2150   -6.3972   14.7379 O   0  0  0  0  0  0  0  0  0  0  0  0
   -9.8556   -4.7173   13.6696 N   0  0  0  0  0  0  0  0  0  0  0  0
   -9.4455   -3.7126   12.7606 C   0  0  0  0  0  0  0  0  0  0  0  0
   -9.6701   -4.2622   10.9787 C   0  0  0  0  0  0  0  0  0  0  0  0
   -9.4074   -2.9184    9.5138 C   0  0  0  0  0  0  0  0  0  0  0  0
  -10.1570   -1.7511   10.3838 C   0  0  0  0  0  0  0  0  0  0  0  0
  -10.6060   -0.6797    9.5780 C   0  0  0  0  0  0  0  0  0  0  0  0
  -11.5489    0.1570   10.1077 C   0  0  0  0  0  0  0  0  0  0  0  0
  -12.0330   -0.1287   11.3798 C   0  0  0  0  0  0  0  0  0  0  0  0
  -11.5268   -1.1969   12.2256 C   0  0  0  0  0  0  0  0  0  0  0  0
  -10.4431   -2.0749   11.9407 C   0  0  0  0  0  0  0  0  0  0  0  0
   -7.9398   -4.3341   13.8922 C   0  0  0  0  0  0  0  0  0  0  0  0
   -6.7636   -3.9483   13.9651 O   0  0  0  0  0  0  0  0  0  0  0  0
   -5.7879   -5.0969   19.7199 N   0  0  0  0  0  0  0  0  0  0  0  0
   -5.1104   -4.4996   21.1804 C   0  0  0  0  0  0  0  0  0  0  0  0
   -4.2712   -3.7806   21.3711 O   0  0  0  0  0  0  0  0  0  0  0  0
   -5.8921   -5.2875   22.1473 N   0  0  0  0  0  0  0  0  0  0  0  0
   -5.7469   -5.4373   23.5826 C   0  0  0  0  0  0  0  0  0  0  0  0
   -6.7751   -6.3396   24.2417 C   0  0  0  0  0  0  0  0  0  0  0  0
   -6.9027   -5.8131   25.6619 C   0  0  0  0  0  0  0  0  0  0  0  0
   -6.7435   -4.3118   25.5346 C   0  0  0  0  0  0  0  0  0  0  0  0
   -5.8492   -4.1043   24.3223 C   0  0  0  0  0  0  0  0  0  0  0  0
   -7.3835   -6.5752   17.3040 H   0  0  0  0  0  0  0  0  0  0  0  0
   -6.4201   -6.9895   16.3116 H   0  0  0  0  0  0  0  0  0  0  0  0
  -10.5102   -5.3401   13.2467 H   0  0  0  0  0  0  0  0  0  0  0  0
  -10.4812   -4.9489   10.8944 H   0  0  0  0  0  0  0  0  0  0  0  0
   -8.8364   -4.8744   10.8555 H   0  0  0  0  0  0  0  0  0  0  0  0
   -8.4133   -2.6374    9.0882 H   0  0  0  0  0  0  0  0  0  0  0  0
   -9.6970   -3.2529    8.4821 H   0  0  0  0  0  0  0  0  0  0  0  0
  -10.2894   -0.5907    8.5442 H   0  0  0  0  0  0  0  0  0  0  0  0
  -11.9545    0.9789    9.5279 H   0  0  0  0  0  0  0  0  0  0  0  0
  -12.8218    0.5045   11.7872 H   0  0  0  0  0  0  0  0  0  0  0  0
  -12.0498   -1.1525   13.1642 H   0  0  0  0  0  0  0  0  0  0  0  0
   -6.4299   -5.7414   19.8672 H   0  0  0  0  0  0  0  0  0  0  0  0
   -6.5088   -5.8897   21.6557 H   0  0  0  0  0  0  0  0  0  0  0  0
   -4.7420   -5.8462   23.7460 H   0  0  0  0  0  0  0  0  0  0  0  0
   -6.4595   -7.3884   24.2266 H   0  0  0  0  0  0  0  0  0  0  0  0
   -7.7442   -6.3016   23.7390 H   0  0  0  0  0  0  0  0  0  0  0  0
   -7.8605   -6.0866   26.1152 H   0  0  0  0  0  0  0  0  0  0  0  0
   -6.1164   -6.2449   26.2845 H   0  0  0  0  0  0  0  0  0  0  0  0
   -6.3310   -3.8640   26.4422 H   0  0  0  0  0  0  0  0  0  0  0  0
   -7.7203   -3.8464   25.3572 H   0  0  0  0  0  0  0  0  0  0  0  0
   -6.3045   -3.3545   23.6827 H   0  0  0  0  0  0  0  0  0  0  0  0
   -4.8551   -3.7526   24.6158 H   0  0  0  0  0  0  0  0  0  0  0  0
  1  2  2  0
  2  3  1  0
  3  4  1  0
  4  5  1  0
  5  6  2  0
  5  7  1  0
  7  8  1  0
  8  9  1  0
  9 10  1  0
 10 11  1  0
 11 12  2  0
 12 13  1  0
 13 14  2  0
 14 15  1  0
 15 16  2  0
  8 17  1  0
 17 18  2  0
  2 19  1  0
 19 20  1  0
 20 21  2  0
 20 22  1  0
 22 23  1  0
 23 24  1  0
 24 25  1  0
 25 26  1  0
 26 27  1  0
 17  4  1  0
 27 23  1  0
 16  8  1  0
 16 11  1  0
  3 28  1  0
  3 29  1  0
  7 30  1  0
  9 31  1  0
  9 32  1  0
 10 33  1  0
 10 34  1  0
 12 35  1  0
 13 36  1  0
 14 37  1  0
 15 38  1  0
 19 39  1  0
 22 40  1  0
 23 41  1  0
 24 42  1  0
 24 43  1  0
 25 44  1  0
 25 45  1  0
 26 46  1  0
 26 47  1  0
 27 48  1  0
 27 49  1  0
M  END
>  <Energy>  (239) 
763.84761487061746

>  <compound_id>  (239) 
46363

>  <target_id>  (239) 
1

>  <reference_id>  (239) 
44

>  <inspiration_ids>  (239) 
[51, 44]

>  <energy_score>  (239) 
708.7919095978596

>  <distance_score>  (239) 
8.414693909301626

>  <path>  (239) 
/opt/xchem-fragalysis-2/maxwin/BulkDock/SCRATCH/511023/C46363-P44/C46363-P44.minimised.mol

>  <scratch_subdir>  (239) 
/opt/xchem-fragalysis-2/maxwin/BulkDock/SCRATCH/511023/C46363-P44

>  <fragmenstein_runtime>  (239) 
36.01670813560486

>  <fragmenstein_outcome>  (239) 
too moved

>  <fragmenstein_mode>  (239) 
expansion

>  <fragmenstein_error>  (239) 


$$$$
C46358-P51
     RDKit          3D

 58 63  0  0  0  0  0  0  0  0999 V2000
   -6.9272    2.0253   13.7058 O   0  0  0  0  0  0  0  0  0  0  0  0
   -6.2664    1.0727   14.0098 C   0  0  0  0  0  0  0  0  0  0  0  0
   -6.1909   -0.1239   12.5129 C   0  0  0  0  0  0  0  0  0  0  0  0
   -7.0144   -0.2037   10.8139 N   0  0  0  0  0  0  0  0  0  0  0  0
   -8.2530    0.1510   10.2679 C   0  0  0  0  0  0  0  0  0  0  0  0
   -9.1144    0.9663   10.5592 O   0  0  0  0  0  0  0  0  0  0  0  0
   -8.4777   -0.4295    9.0395 N   0  0  0  0  0  0  0  0  0  0  0  0
   -7.2603   -0.5746    8.3690 C   0  0  0  0  0  0  0  0  0  0  0  0
   -7.0932   -1.9090    7.6274 C   0  0  0  0  0  0  0  0  0  0  0  0
   -7.4505   -1.6599    6.1587 C   0  0  0  0  0  0  0  0  0  0  0  0
   -7.1590   -0.2013    6.0121 C   0  0  0  0  0  0  0  0  0  0  0  0
   -7.0533    0.5182    4.8335 C   0  0  0  0  0  0  0  0  0  0  0  0
   -6.8697    1.8984    4.9085 C   0  0  0  0  0  0  0  0  0  0  0  0
   -6.8271    2.5411    6.1516 C   0  0  0  0  0  0  0  0  0  0  0  0
   -6.9486    1.8083    7.3343 C   0  0  0  0  0  0  0  0  0  0  0  0
   -7.0877    0.4296    7.2585 C   0  0  0  0  0  0  0  0  0  0  0  0
   -6.3253   -0.4047    9.5575 C   0  0  0  0  0  0  0  0  0  0  0  0
   -5.1064   -0.4128    9.3606 O   0  0  0  0  0  0  0  0  0  0  0  0
   -5.4003    0.9475   15.7599 N   0  0  0  0  0  0  0  0  0  0  0  0
   -5.5186    2.1442   17.3736 C   0  0  0  0  0  0  0  0  0  0  0  0
   -5.3073    1.8475   18.6897 N   0  0  0  0  0  0  0  0  0  0  0  0
   -4.8957    2.9537   19.8206 C   0  0  0  0  0  0  0  0  0  0  0  0
   -4.4447    2.9117   21.1937 C   0  0  0  0  0  0  0  0  0  0  0  0
   -3.9069    3.9121   22.0797 C   0  0  0  0  0  0  0  0  0  0  0  0
   -3.7494    5.1784   21.6195 C   0  0  0  0  0  0  0  0  0  0  0  0
   -4.1846    5.3666   20.3352 C   0  0  0  0  0  0  0  0  0  0  0  0
   -4.7387    4.3123   19.5676 C   0  0  0  0  0  0  0  0  0  0  0  0
   -5.2305    4.7151   18.4770 N   0  0  0  0  0  0  0  0  0  0  0  0
   -5.9260    3.8188   17.7025 C   0  0  0  0  0  0  0  0  0  0  0  0
   -7.0176    4.7327   17.3643 N   0  0  0  0  0  0  0  0  0  0  0  0
   -6.5961    6.1257   16.8286 C   0  0  0  0  0  0  0  0  0  0  0  0
   -7.3428    7.1845   17.6292 C   0  0  0  0  0  0  0  0  0  0  0  0
   -7.5056    6.5277   18.9628 C   0  0  0  0  0  0  0  0  0  0  0  0
   -7.7912    5.0898   18.5538 C   0  0  0  0  0  0  0  0  0  0  0  0
   -5.2246   -0.2416   12.0339 H   0  0  0  0  0  0  0  0  0  0  0  0
   -6.3018   -0.8514   13.2636 H   0  0  0  0  0  0  0  0  0  0  0  0
   -9.2858   -0.0598    8.5543 H   0  0  0  0  0  0  0  0  0  0  0  0
   -7.7097   -2.7135    8.0425 H   0  0  0  0  0  0  0  0  0  0  0  0
   -6.0469   -2.2398    7.6704 H   0  0  0  0  0  0  0  0  0  0  0  0
   -8.5141   -1.8477    5.9771 H   0  0  0  0  0  0  0  0  0  0  0  0
   -6.8480   -2.2810    5.4915 H   0  0  0  0  0  0  0  0  0  0  0  0
   -7.1218    0.0228    3.8687 H   0  0  0  0  0  0  0  0  0  0  0  0
   -6.7873    2.4818    3.9947 H   0  0  0  0  0  0  0  0  0  0  0  0
   -6.7194    3.6227    6.1950 H   0  0  0  0  0  0  0  0  0  0  0  0
   -6.9598    2.3259    8.2880 H   0  0  0  0  0  0  0  0  0  0  0  0
   -5.0072    0.1120   15.8542 H   0  0  0  0  0  0  0  0  0  0  0  0
   -4.5391    1.9722   21.6490 H   0  0  0  0  0  0  0  0  0  0  0  0
   -3.6420    3.6621   23.1019 H   0  0  0  0  0  0  0  0  0  0  0  0
   -3.3575    5.9829   22.2279 H   0  0  0  0  0  0  0  0  0  0  0  0
   -4.1498    6.3636   19.9006 H   0  0  0  0  0  0  0  0  0  0  0  0
   -5.5191    6.3132   16.8815 H   0  0  0  0  0  0  0  0  0  0  0  0
   -6.9071    6.2810   15.7888 H   0  0  0  0  0  0  0  0  0  0  0  0
   -8.3236    7.3786   17.1780 H   0  0  0  0  0  0  0  0  0  0  0  0
   -6.7998    8.1325   17.6792 H   0  0  0  0  0  0  0  0  0  0  0  0
   -6.5964    6.6186   19.5598 H   0  0  0  0  0  0  0  0  0  0  0  0
   -8.3209    6.9669   19.5433 H   0  0  0  0  0  0  0  0  0  0  0  0
   -8.8565    5.0502   18.2988 H   0  0  0  0  0  0  0  0  0  0  0  0
   -7.5658    4.3872   19.3406 H   0  0  0  0  0  0  0  0  0  0  0  0
  1  2  2  0
  2  3  1  0
  3  4  1  0
  4  5  1  0
  5  6  2  0
  5  7  1  0
  7  8  1  0
  8  9  1  0
  9 10  1  0
 10 11  1  0
 11 12  2  0
 12 13  1  0
 13 14  2  0
 14 15  1  0
 15 16  2  0
  8 17  1  0
 17 18  2  0
  2 19  1  0
 19 20  1  0
 20 21  2  0
 21 22  1  0
 22 23  2  0
 23 24  1  0
 24 25  2  0
 25 26  1  0
 26 27  2  0
 27 28  1  0
 28 29  2  0
 29 30  1  0
 30 31  1  0
 31 32  1  0
 32 33  1  0
 33 34  1  0
 17  4  1  0
 29 20  1  0
 34 30  1  0
 16  8  1  0
 27 22  1  0
 16 11  1  0
  3 35  1  0
  3 36  1  0
  7 37  1  0
  9 38  1  0
  9 39  1  0
 10 40  1  0
 10 41  1  0
 12 42  1  0
 13 43  1  0
 14 44  1  0
 15 45  1  0
 19 46  1  0
 23 47  1  0
 24 48  1  0
 25 49  1  0
 26 50  1  0
 31 51  1  0
 31 52  1  0
 32 53  1  0
 32 54  1  0
 33 55  1  0
 33 56  1  0
 34 57  1  0
 34 58  1  0
M  END
>  <Energy>  (240) 
617.82007264152207

>  <compound_id>  (240) 
46358

>  <target_id>  (240) 
1

>  <reference_id>  (240) 
51

>  <inspiration_ids>  (240) 
[51, 44]

>  <energy_score>  (240) 
526.128414514352

>  <distance_score>  (240) 
5.799080367719831

>  <path>  (240) 
/opt/xchem-fragalysis-2/maxwin/BulkDock/SCRATCH/511023/C46358-P51/C46358-P51.minimised.mol

>  <scratch_subdir>  (240) 
/opt/xchem-fragalysis-2/maxwin/BulkDock/SCRATCH/511023/C46358-P51

>  <fragmenstein_runtime>  (240) 
30.38784098625183

>  <fragmenstein_outcome>  (240) 
too moved

>  <fragmenstein_mode>  (240) 
expansion

>  <fragmenstein_error>  (240) 


$$$$
C46358-P44
     RDKit          3D

 58 63  0  0  0  0  0  0  0  0999 V2000
   -2.0826   -8.9177   15.0122 O   0  0  0  0  0  0  0  0  0  0  0  0
   -3.2749   -8.4828   15.1388 C   0  0  0  0  0  0  0  0  0  0  0  0
   -4.4380   -8.9288   13.3125 C   0  0  0  0  0  0  0  0  0  0  0  0
   -5.2290   -8.0090   11.6339 N   0  0  0  0  0  0  0  0  0  0  0  0
   -6.0416   -8.5867   10.6298 C   0  0  0  0  0  0  0  0  0  0  0  0
   -6.3398   -9.7760   10.5529 O   0  0  0  0  0  0  0  0  0  0  0  0
   -6.6464   -7.6154    9.5064 N   0  0  0  0  0  0  0  0  0  0  0  0
   -6.6423   -5.8018    9.3363 C   0  0  0  0  0  0  0  0  0  0  0  0
   -6.3525   -4.5042    7.8026 C   0  0  0  0  0  0  0  0  0  0  0  0
   -6.8085   -4.9343    6.4075 C   0  0  0  0  0  0  0  0  0  0  0  0
   -8.1570   -4.8856    6.9377 C   0  0  0  0  0  0  0  0  0  0  0  0
   -8.9889   -4.0579    6.1130 C   0  0  0  0  0  0  0  0  0  0  0  0
   -9.4888   -2.9283    6.6777 C   0  0  0  0  0  0  0  0  0  0  0  0
   -9.3727   -2.8711    8.0365 C   0  0  0  0  0  0  0  0  0  0  0  0
   -8.9290   -4.0314    8.7940 C   0  0  0  0  0  0  0  0  0  0  0  0
   -8.0751   -4.9916    8.3782 C   0  0  0  0  0  0  0  0  0  0  0  0
   -5.5578   -6.4759   10.9195 C   0  0  0  0  0  0  0  0  0  0  0  0
   -5.2263   -5.5332   11.6353 O   0  0  0  0  0  0  0  0  0  0  0  0
   -4.1883   -7.2090   16.6733 N   0  0  0  0  0  0  0  0  0  0  0  0
   -3.5226   -6.1098   18.2650 C   0  0  0  0  0  0  0  0  0  0  0  0
   -3.5703   -5.2055   19.5943 N   0  0  0  0  0  0  0  0  0  0  0  0
   -4.0576   -5.2542   21.3607 C   0  0  0  0  0  0  0  0  0  0  0  0
   -4.1115   -6.5659   22.5915 C   0  0  0  0  0  0  0  0  0  0  0  0
   -3.3079   -6.4012   23.8621 C   0  0  0  0  0  0  0  0  0  0  0  0
   -2.8825   -4.9758   24.2665 C   0  0  0  0  0  0  0  0  0  0  0  0
   -3.5671   -3.5536   23.5470 C   0  0  0  0  0  0  0  0  0  0  0  0
   -4.1821   -3.9810   21.8465 C   0  0  0  0  0  0  0  0  0  0  0  0
   -4.7887   -3.8612   20.5318 N   0  0  0  0  0  0  0  0  0  0  0  0
   -4.7246   -4.8592   19.3264 C   0  0  0  0  0  0  0  0  0  0  0  0
   -6.0612   -5.4751   20.5975 N   0  0  0  0  0  0  0  0  0  0  0  0
   -7.3580   -6.7467   21.3908 C   0  0  0  0  0  0  0  0  0  0  0  0
   -7.1709   -6.9906   22.8185 C   0  0  0  0  0  0  0  0  0  0  0  0
   -7.3200   -5.5635   23.0159 C   0  0  0  0  0  0  0  0  0  0  0  0
   -6.6288   -4.4608   21.5906 C   0  0  0  0  0  0  0  0  0  0  0  0
   -3.6044   -9.3849   12.7398 H   0  0  0  0  0  0  0  0  0  0  0  0
   -5.1207   -9.7959   13.4114 H   0  0  0  0  0  0  0  0  0  0  0  0
   -7.2378   -8.1214    8.8589 H   0  0  0  0  0  0  0  0  0  0  0  0
   -5.3545   -3.9867    7.6861 H   0  0  0  0  0  0  0  0  0  0  0  0
   -6.7959   -3.4537    7.8172 H   0  0  0  0  0  0  0  0  0  0  0  0
   -6.6575   -5.9163    6.0235 H   0  0  0  0  0  0  0  0  0  0  0  0
   -6.5583   -4.1782    5.6555 H   0  0  0  0  0  0  0  0  0  0  0  0
   -8.9510   -4.1073    5.0303 H   0  0  0  0  0  0  0  0  0  0  0  0
   -9.9761   -2.1542    6.1003 H   0  0  0  0  0  0  0  0  0  0  0  0
   -9.8373   -2.0319    8.5521 H   0  0  0  0  0  0  0  0  0  0  0  0
   -9.4083   -4.2872    9.7307 H   0  0  0  0  0  0  0  0  0  0  0  0
   -5.2170   -7.0975   16.5738 H   0  0  0  0  0  0  0  0  0  0  0  0
   -4.0754   -7.5943   22.2055 H   0  0  0  0  0  0  0  0  0  0  0  0
   -2.9936   -7.2640   24.4400 H   0  0  0  0  0  0  0  0  0  0  0  0
   -2.3785   -5.0365   25.2041 H   0  0  0  0  0  0  0  0  0  0  0  0
   -3.2896   -2.5788   23.9202 H   0  0  0  0  0  0  0  0  0  0  0  0
   -8.3511   -6.6382   20.8850 H   0  0  0  0  0  0  0  0  0  0  0  0
   -7.4296   -7.8590   21.1505 H   0  0  0  0  0  0  0  0  0  0  0  0
   -6.2616   -7.4930   23.1386 H   0  0  0  0  0  0  0  0  0  0  0  0
   -7.9895   -7.6086   23.2156 H   0  0  0  0  0  0  0  0  0  0  0  0
   -7.2733   -4.9038   23.9011 H   0  0  0  0  0  0  0  0  0  0  0  0
   -8.1899   -5.7469   23.5989 H   0  0  0  0  0  0  0  0  0  0  0  0
   -7.3030   -3.7924   21.0199 H   0  0  0  0  0  0  0  0  0  0  0  0
   -6.2519   -3.4873   21.8867 H   0  0  0  0  0  0  0  0  0  0  0  0
  1  2  2  0
  2  3  1  0
  3  4  1  0
  4  5  1  0
  5  6  2  0
  5  7  1  0
  7  8  1  0
  8  9  1  0
  9 10  1  0
 10 11  1  0
 11 12  2  0
 12 13  1  0
 13 14  2  0
 14 15  1  0
 15 16  2  0
  8 17  1  0
 17 18  2  0
  2 19  1  0
 19 20  1  0
 20 21  2  0
 21 22  1  0
 22 23  2  0
 23 24  1  0
 24 25  2  0
 25 26  1  0
 26 27  2  0
 27 28  1  0
 28 29  2  0
 29 30  1  0
 30 31  1  0
 31 32  1  0
 32 33  1  0
 33 34  1  0
 17  4  1  0
 29 20  1  0
 34 30  1  0
 16  8  1  0
 27 22  1  0
 16 11  1  0
  3 35  1  0
  3 36  1  0
  7 37  1  0
  9 38  1  0
  9 39  1  0
 10 40  1  0
 10 41  1  0
 12 42  1  0
 13 43  1  0
 14 44  1  0
 15 45  1  0
 19 46  1  0
 23 47  1  0
 24 48  1  0
 25 49  1  0
 26 50  1  0
 31 51  1  0
 31 52  1  0
 32 53  1  0
 32 54  1  0
 33 55  1  0
 33 56  1  0
 34 57  1  0
 34 58  1  0
M  END
>  <Energy>  (241) 
2608.3001193681962

>  <compound_id>  (241) 
46358

>  <target_id>  (241) 
1

>  <reference_id>  (241) 
44

>  <inspiration_ids>  (241) 
[51, 44]

>  <energy_score>  (241) 
2516.6084612410345

>  <distance_score>  (241) 
7.396015999269332

>  <path>  (241) 
/opt/xchem-fragalysis-2/maxwin/BulkDock/SCRATCH/511023/C46358-P44/C46358-P44.minimised.mol

>  <scratch_subdir>  (241) 
/opt/xchem-fragalysis-2/maxwin/BulkDock/SCRATCH/511023/C46358-P44

>  <fragmenstein_runtime>  (241) 
39.74036955833435

>  <fragmenstein_outcome>  (241) 
too moved

>  <fragmenstein_mode>  (241) 
expansion

>  <fragmenstein_error>  (241) 


$$$$
C46364-P51
     RDKit          3D

 54 57  0  0  0  0  0  0  0  0999 V2000
   -1.9389   -2.1543   22.7722 C   0  0  0  0  0  0  0  0  0  0  0  0
   -3.6066   -2.4005   22.2869 C   0  0  0  0  0  0  0  0  0  0  0  0
   -4.3428   -3.3340   21.4412 N   0  0  0  0  0  0  0  0  0  0  0  0
   -4.1527   -3.7452   19.3704 C   0  0  0  0  0  0  0  0  0  0  0  0
   -3.3590   -2.9415   18.9754 O   0  0  0  0  0  0  0  0  0  0  0  0
   -4.9054   -4.7763   17.4678 C   0  0  0  0  0  0  0  0  0  0  0  0
   -5.4945   -4.8433   15.2966 N   0  0  0  0  0  0  0  0  0  0  0  0
   -7.0469   -5.3899   14.6666 C   0  0  0  0  0  0  0  0  0  0  0  0
   -7.8195   -6.1333   15.2882 O   0  0  0  0  0  0  0  0  0  0  0  0
   -7.2508   -5.3827   12.9360 N   0  0  0  0  0  0  0  0  0  0  0  0
   -6.6728   -4.5185   11.3499 C   0  0  0  0  0  0  0  0  0  0  0  0
   -6.9737   -2.6379   10.0207 C   0  0  0  0  0  0  0  0  0  0  0  0
   -8.2582   -2.6758    8.9575 C   0  0  0  0  0  0  0  0  0  0  0  0
   -8.5918   -4.2080    8.9145 C   0  0  0  0  0  0  0  0  0  0  0  0
   -9.2958   -4.1107    7.5945 C   0  0  0  0  0  0  0  0  0  0  0  0
   -8.6668   -4.4003    6.4399 C   0  0  0  0  0  0  0  0  0  0  0  0
   -7.3584   -4.5950    6.6707 C   0  0  0  0  0  0  0  0  0  0  0  0
   -6.8667   -4.7116    8.0717 C   0  0  0  0  0  0  0  0  0  0  0  0
   -7.4076   -5.0288    9.4996 C   0  0  0  0  0  0  0  0  0  0  0  0
   -5.5394   -4.7066   13.3244 C   0  0  0  0  0  0  0  0  0  0  0  0
   -5.5524   -3.5029   13.9001 O   0  0  0  0  0  0  0  0  0  0  0  0
   -3.4556   -3.8713   23.2412 C   0  0  0  0  0  0  0  0  0  0  0  0
   -3.1233   -3.1442   25.1839 C   0  0  0  0  0  0  0  0  0  0  0  0
   -2.5562   -2.1639   26.8379 C   0  0  0  0  0  0  0  0  0  0  0  0
   -2.5161   -0.7407   26.9395 C   0  0  0  0  0  0  0  0  0  0  0  0
   -3.2221   -0.7185   25.6474 C   0  0  0  0  0  0  0  0  0  0  0  0
   -3.6928   -2.2839   24.4737 C   0  0  0  0  0  0  0  0  0  0  0  0
   -1.1130   -2.2377   22.0842 H   0  0  0  0  0  0  0  0  0  0  0  0
   -1.4962   -2.8527   23.4060 H   0  0  0  0  0  0  0  0  0  0  0  0
   -1.8264   -1.3320   23.4162 H   0  0  0  0  0  0  0  0  0  0  0  0
   -2.9369   -2.6038   21.5946 H   0  0  0  0  0  0  0  0  0  0  0  0
   -3.5322   -1.2759   21.9600 H   0  0  0  0  0  0  0  0  0  0  0  0
   -5.8297   -5.0568   17.9497 H   0  0  0  0  0  0  0  0  0  0  0  0
   -4.1843   -5.5706   17.3447 H   0  0  0  0  0  0  0  0  0  0  0  0
   -6.8962   -6.3178   12.7582 H   0  0  0  0  0  0  0  0  0  0  0  0
   -6.9520   -1.4416   10.3096 H   0  0  0  0  0  0  0  0  0  0  0  0
   -6.2036   -2.2419    9.1677 H   0  0  0  0  0  0  0  0  0  0  0  0
   -7.8838   -2.2506    8.0126 H   0  0  0  0  0  0  0  0  0  0  0  0
   -9.1450   -2.0776    9.2226 H   0  0  0  0  0  0  0  0  0  0  0  0
  -10.1671   -3.4531    7.4983 H   0  0  0  0  0  0  0  0  0  0  0  0
   -9.0984   -4.1937    5.4722 H   0  0  0  0  0  0  0  0  0  0  0  0
   -6.6531   -4.4527    5.8578 H   0  0  0  0  0  0  0  0  0  0  0  0
   -5.9253   -4.1268    7.9416 H   0  0  0  0  0  0  0  0  0  0  0  0
   -2.9802   -4.9351   23.6063 H   0  0  0  0  0  0  0  0  0  0  0  0
   -2.6583   -4.0863   25.3338 H   0  0  0  0  0  0  0  0  0  0  0  0
   -4.0578   -3.0352   25.9649 H   0  0  0  0  0  0  0  0  0  0  0  0
   -1.6259   -2.5658   27.2942 H   0  0  0  0  0  0  0  0  0  0  0  0
   -3.3916   -2.2611   27.5784 H   0  0  0  0  0  0  0  0  0  0  0  0
   -1.4890   -0.3443   26.9690 H   0  0  0  0  0  0  0  0  0  0  0  0
   -2.9996   -0.3258   27.8107 H   0  0  0  0  0  0  0  0  0  0  0  0
   -3.7784    0.2276   25.5472 H   0  0  0  0  0  0  0  0  0  0  0  0
   -2.2916   -0.2093   25.3347 H   0  0  0  0  0  0  0  0  0  0  0  0
   -3.3062   -1.5944   23.8657 H   0  0  0  0  0  0  0  0  0  0  0  0
   -4.7391   -2.5191   24.3264 H   0  0  0  0  0  0  0  0  0  0  0  0
  1  2  1  0
  2  3  1  0
  3  4  1  0
  4  5  2  0
  4  6  1  0
  6  7  1  0
  7  8  1  0
  8  9  2  0
  8 10  1  0
 10 11  1  0
 11 12  1  0
 12 13  1  0
 13 14  1  0
 14 15  2  0
 15 16  1  0
 16 17  2  0
 17 18  1  0
 18 19  2  0
 11 20  1  0
 20 21  2  0
  3 22  1  0
 22 23  1  0
 23 24  1  0
 24 25  1  0
 25 26  1  0
 26 27  1  0
 20  7  1  0
 27 22  1  0
 19 11  1  0
 19 14  1  0
  1 28  1  0
  1 29  1  0
  1 30  1  0
  2 31  1  0
  2 32  1  0
  6 33  1  0
  6 34  1  0
 10 35  1  0
 12 36  1  0
 12 37  1  0
 13 38  1  0
 13 39  1  0
 15 40  1  0
 16 41  1  0
 17 42  1  0
 18 43  1  0
 22 44  1  0
 23 45  1  0
 23 46  1  0
 24 47  1  0
 24 48  1  0
 25 49  1  0
 25 50  1  0
 26 51  1  0
 26 52  1  0
 27 53  1  0
 27 54  1  0
M  END
>  <Energy>  (242) 
3240.3252415364082

>  <compound_id>  (242) 
46364

>  <target_id>  (242) 
1

>  <reference_id>  (242) 
51

>  <inspiration_ids>  (242) 
[51, 44]

>  <energy_score>  (242) 
3217.23503224954

>  <distance_score>  (242) 
6.40218612336165

>  <path>  (242) 
/opt/xchem-fragalysis-2/maxwin/BulkDock/SCRATCH/511023/C46364-P51/C46364-P51.minimised.mol

>  <scratch_subdir>  (242) 
/opt/xchem-fragalysis-2/maxwin/BulkDock/SCRATCH/511023/C46364-P51

>  <fragmenstein_runtime>  (242) 
26.801453590393066

>  <fragmenstein_outcome>  (242) 
too moved

>  <fragmenstein_mode>  (242) 
expansion

>  <fragmenstein_error>  (242) 


$$$$
C46364-P44
     RDKit          3D

 54 57  0  0  0  0  0  0  0  0999 V2000
   -5.0680    2.6973   19.8125 C   0  0  0  0  0  0  0  0  0  0  0  0
   -6.2972    2.5089   19.0732 C   0  0  0  0  0  0  0  0  0  0  0  0
   -6.3994    2.2606   17.6847 N   0  0  0  0  0  0  0  0  0  0  0  0
   -5.4053    1.3068   16.6300 C   0  0  0  0  0  0  0  0  0  0  0  0
   -4.3761    0.7742   16.9587 O   0  0  0  0  0  0  0  0  0  0  0  0
   -5.9783    0.7435   14.5489 C   0  0  0  0  0  0  0  0  0  0  0  0
   -6.5217    0.7620   12.5630 N   0  0  0  0  0  0  0  0  0  0  0  0
   -6.0271   -0.1602   11.7864 C   0  0  0  0  0  0  0  0  0  0  0  0
   -4.8373   -0.3199   11.5179 O   0  0  0  0  0  0  0  0  0  0  0  0
   -6.9981   -0.4874   10.9095 N   0  0  0  0  0  0  0  0  0  0  0  0
   -7.0823    0.2644    9.7511 C   0  0  0  0  0  0  0  0  0  0  0  0
   -5.9191   -0.0274    8.7600 C   0  0  0  0  0  0  0  0  0  0  0  0
   -6.3261    0.6096    7.4359 C   0  0  0  0  0  0  0  0  0  0  0  0
   -7.7861    0.3246    7.4607 C   0  0  0  0  0  0  0  0  0  0  0  0
   -8.6224    0.2698    6.3579 C   0  0  0  0  0  0  0  0  0  0  0  0
   -9.9564   -0.0524    6.5691 C   0  0  0  0  0  0  0  0  0  0  0  0
  -10.4264   -0.2968    7.8659 C   0  0  0  0  0  0  0  0  0  0  0  0
   -9.5745   -0.2150    8.9739 C   0  0  0  0  0  0  0  0  0  0  0  0
   -8.2393    0.0962    8.7762 C   0  0  0  0  0  0  0  0  0  0  0  0
   -7.3946    1.1553   11.0173 C   0  0  0  0  0  0  0  0  0  0  0  0
   -8.4642    1.8322   10.8723 O   0  0  0  0  0  0  0  0  0  0  0  0
   -6.1380    4.1217   17.8389 C   0  0  0  0  0  0  0  0  0  0  0  0
   -4.8880    5.0546   18.5346 C   0  0  0  0  0  0  0  0  0  0  0  0
   -5.0572    5.9354   19.8033 C   0  0  0  0  0  0  0  0  0  0  0  0
   -6.4330    6.5121   19.9972 C   0  0  0  0  0  0  0  0  0  0  0  0
   -7.1797    6.4902   18.6878 C   0  0  0  0  0  0  0  0  0  0  0  0
   -7.4225    5.0490   18.2301 C   0  0  0  0  0  0  0  0  0  0  0  0
   -4.5215    2.4913   18.9567 H   0  0  0  0  0  0  0  0  0  0  0  0
   -4.9180    2.0285   20.6361 H   0  0  0  0  0  0  0  0  0  0  0  0
   -4.7725    3.6390   20.2237 H   0  0  0  0  0  0  0  0  0  0  0  0
   -7.1532    3.0120   19.4776 H   0  0  0  0  0  0  0  0  0  0  0  0
   -6.4979    1.4686   19.2936 H   0  0  0  0  0  0  0  0  0  0  0  0
   -6.9374    1.1141   14.2780 H   0  0  0  0  0  0  0  0  0  0  0  0
   -5.9950   -0.3599   14.5805 H   0  0  0  0  0  0  0  0  0  0  0  0
   -7.8594   -0.6104   11.4460 H   0  0  0  0  0  0  0  0  0  0  0  0
   -4.8941    0.2536    9.0064 H   0  0  0  0  0  0  0  0  0  0  0  0
   -5.8623   -1.1141    8.5908 H   0  0  0  0  0  0  0  0  0  0  0  0
   -5.8236    0.1319    6.5904 H   0  0  0  0  0  0  0  0  0  0  0  0
   -6.1494    1.6893    7.4290 H   0  0  0  0  0  0  0  0  0  0  0  0
   -8.2494    0.4450    5.3546 H   0  0  0  0  0  0  0  0  0  0  0  0
  -10.6382   -0.1375    5.7267 H   0  0  0  0  0  0  0  0  0  0  0  0
  -11.4677   -0.5726    8.0141 H   0  0  0  0  0  0  0  0  0  0  0  0
   -9.9737   -0.4052    9.9639 H   0  0  0  0  0  0  0  0  0  0  0  0
   -6.0067    4.4412   16.8463 H   0  0  0  0  0  0  0  0  0  0  0  0
   -4.7176    5.8182   17.7559 H   0  0  0  0  0  0  0  0  0  0  0  0
   -3.9041    4.6110   18.6137 H   0  0  0  0  0  0  0  0  0  0  0  0
   -4.3520    6.7726   19.6946 H   0  0  0  0  0  0  0  0  0  0  0  0
   -4.7339    5.4535   20.7298 H   0  0  0  0  0  0  0  0  0  0  0  0
   -6.3609    7.5372   20.3784 H   0  0  0  0  0  0  0  0  0  0  0  0
   -6.9853    5.9422   20.7508 H   0  0  0  0  0  0  0  0  0  0  0  0
   -6.6542    7.0620   17.9138 H   0  0  0  0  0  0  0  0  0  0  0  0
   -8.1507    6.9823   18.8257 H   0  0  0  0  0  0  0  0  0  0  0  0
   -8.0397    4.6255   19.0262 H   0  0  0  0  0  0  0  0  0  0  0  0
   -8.0341    5.1698   17.3314 H   0  0  0  0  0  0  0  0  0  0  0  0
  1  2  1  0
  2  3  1  0
  3  4  1  0
  4  5  2  0
  4  6  1  0
  6  7  1  0
  7  8  1  0
  8  9  2  0
  8 10  1  0
 10 11  1  0
 11 12  1  0
 12 13  1  0
 13 14  1  0
 14 15  2  0
 15 16  1  0
 16 17  2  0
 17 18  1  0
 18 19  2  0
 11 20  1  0
 20 21  2  0
  3 22  1  0
 22 23  1  0
 23 24  1  0
 24 25  1  0
 25 26  1  0
 26 27  1  0
 20  7  1  0
 27 22  1  0
 19 11  1  0
 19 14  1  0
  1 28  1  0
  1 29  1  0
  1 30  1  0
  2 31  1  0
  2 32  1  0
  6 33  1  0
  6 34  1  0
 10 35  1  0
 12 36  1  0
 12 37  1  0
 13 38  1  0
 13 39  1  0
 15 40  1  0
 16 41  1  0
 17 42  1  0
 18 43  1  0
 22 44  1  0
 23 45  1  0
 23 46  1  0
 24 47  1  0
 24 48  1  0
 25 49  1  0
 25 50  1  0
 26 51  1  0
 26 52  1  0
 27 53  1  0
 27 54  1  0
M  END
>  <Energy>  (243) 
757.02541259288932

>  <compound_id>  (243) 
46364

>  <target_id>  (243) 
1

>  <reference_id>  (243) 
44

>  <inspiration_ids>  (243) 
[51, 44]

>  <energy_score>  (243) 
733.9352033059998

>  <distance_score>  (243) 
7.488083414207462

>  <path>  (243) 
/opt/xchem-fragalysis-2/maxwin/BulkDock/SCRATCH/511023/C46364-P44/C46364-P44.minimised.mol

>  <scratch_subdir>  (243) 
/opt/xchem-fragalysis-2/maxwin/BulkDock/SCRATCH/511023/C46364-P44

>  <fragmenstein_runtime>  (243) 
21.01680088043213

>  <fragmenstein_outcome>  (243) 
too moved

>  <fragmenstein_mode>  (243) 
expansion

>  <fragmenstein_error>  (243) 


$$$$
C46365-P51
     RDKit          3D

 52 55  0  0  0  0  0  0  0  0999 V2000
   -5.2793   -4.4234   13.7915 O   0  0  0  0  0  0  0  0  0  0  0  0
   -5.2220   -3.6842   14.6834 C   0  0  0  0  0  0  0  0  0  0  0  0
   -5.9248   -1.8139   14.1694 C   0  0  0  0  0  0  0  0  0  0  0  0
   -6.0263   -0.6787   12.5114 N   0  0  0  0  0  0  0  0  0  0  0  0
   -7.0717   -0.6573   11.5875 C   0  0  0  0  0  0  0  0  0  0  0  0
   -8.1990   -1.0436   11.8906 O   0  0  0  0  0  0  0  0  0  0  0  0
   -7.0087   -0.4244   10.2698 N   0  0  0  0  0  0  0  0  0  0  0  0
   -5.7586   -0.3156    9.6618 C   0  0  0  0  0  0  0  0  0  0  0  0
   -5.2503   -1.3832    8.6930 C   0  0  0  0  0  0  0  0  0  0  0  0
   -4.8594   -0.8395    7.3478 C   0  0  0  0  0  0  0  0  0  0  0  0
   -5.6606    0.3953    7.2901 C   0  0  0  0  0  0  0  0  0  0  0  0
   -5.9822    1.0796    6.1154 C   0  0  0  0  0  0  0  0  0  0  0  0
   -6.9093    2.1081    6.1541 C   0  0  0  0  0  0  0  0  0  0  0  0
   -7.5598    2.3778    7.3481 C   0  0  0  0  0  0  0  0  0  0  0  0
   -7.2329    1.6579    8.5059 C   0  0  0  0  0  0  0  0  0  0  0  0
   -6.1777    0.7267    8.5407 C   0  0  0  0  0  0  0  0  0  0  0  0
   -5.1117   -0.3877   11.5052 C   0  0  0  0  0  0  0  0  0  0  0  0
   -3.9625   -0.1975   11.7993 O   0  0  0  0  0  0  0  0  0  0  0  0
   -4.7678   -3.9993   16.3898 N   0  0  0  0  0  0  0  0  0  0  0  0
   -4.4408   -5.4111   17.2002 C   0  0  0  0  0  0  0  0  0  0  0  0
   -4.6330   -5.2692   18.8482 C   0  0  0  0  0  0  0  0  0  0  0  0
   -4.2704   -6.2168   19.9866 C   0  0  0  0  0  0  0  0  0  0  0  0
   -3.4815   -7.2969   19.8952 C   0  0  0  0  0  0  0  0  0  0  0  0
   -2.9892   -8.0765   21.0777 C   0  0  0  0  0  0  0  0  0  0  0  0
   -3.7732   -7.8308   22.3563 C   0  0  0  0  0  0  0  0  0  0  0  0
   -4.1200   -6.3696   22.5368 C   0  0  0  0  0  0  0  0  0  0  0  0
   -4.8512   -5.7989   21.3302 C   0  0  0  0  0  0  0  0  0  0  0  0
   -6.9735   -2.0981   14.3772 H   0  0  0  0  0  0  0  0  0  0  0  0
   -5.7997   -1.0377   14.8825 H   0  0  0  0  0  0  0  0  0  0  0  0
   -7.8654   -0.5347    9.7369 H   0  0  0  0  0  0  0  0  0  0  0  0
   -6.0444   -2.1022    8.4874 H   0  0  0  0  0  0  0  0  0  0  0  0
   -4.3302   -1.8245    9.0547 H   0  0  0  0  0  0  0  0  0  0  0  0
   -3.7839   -0.6857    7.2838 H   0  0  0  0  0  0  0  0  0  0  0  0
   -5.1792   -1.5642    6.5966 H   0  0  0  0  0  0  0  0  0  0  0  0
   -5.5577    0.7805    5.1661 H   0  0  0  0  0  0  0  0  0  0  0  0
   -7.1810    2.6411    5.2473 H   0  0  0  0  0  0  0  0  0  0  0  0
   -8.3589    3.1147    7.3795 H   0  0  0  0  0  0  0  0  0  0  0  0
   -7.8774    1.8123    9.3657 H   0  0  0  0  0  0  0  0  0  0  0  0
   -4.8842   -3.2198   16.9161 H   0  0  0  0  0  0  0  0  0  0  0  0
   -3.9279   -6.3211   17.0365 H   0  0  0  0  0  0  0  0  0  0  0  0
   -5.4247   -5.9100   17.1996 H   0  0  0  0  0  0  0  0  0  0  0  0
   -4.2768   -4.2992   19.1362 H   0  0  0  0  0  0  0  0  0  0  0  0
   -5.6957   -5.2314   18.9833 H   0  0  0  0  0  0  0  0  0  0  0  0
   -3.1174   -7.6206   18.9262 H   0  0  0  0  0  0  0  0  0  0  0  0
   -1.9337   -7.8252   21.2375 H   0  0  0  0  0  0  0  0  0  0  0  0
   -3.0248   -9.1464   20.8411 H   0  0  0  0  0  0  0  0  0  0  0  0
   -4.7016   -8.4165   22.3236 H   0  0  0  0  0  0  0  0  0  0  0  0
   -3.2058   -8.1970   23.2195 H   0  0  0  0  0  0  0  0  0  0  0  0
   -4.7792   -6.3062   23.4012 H   0  0  0  0  0  0  0  0  0  0  0  0
   -3.2124   -5.7912   22.7415 H   0  0  0  0  0  0  0  0  0  0  0  0
   -5.8924   -6.1438   21.3519 H   0  0  0  0  0  0  0  0  0  0  0  0
   -4.8888   -4.7101   21.4300 H   0  0  0  0  0  0  0  0  0  0  0  0
  1  2  2  0
  2  3  1  0
  3  4  1  0
  4  5  1  0
  5  6  2  0
  5  7  1  0
  7  8  1  0
  8  9  1  0
  9 10  1  0
 10 11  1  0
 11 12  2  0
 12 13  1  0
 13 14  2  0
 14 15  1  0
 15 16  2  0
  8 17  1  0
 17 18  2  0
  2 19  1  0
 19 20  1  0
 20 21  1  0
 21 22  1  0
 22 23  2  0
 23 24  1  0
 24 25  1  0
 25 26  1  0
 26 27  1  0
 17  4  1  0
 27 22  1  0
 16  8  1  0
 16 11  1  0
  3 28  1  0
  3 29  1  0
  7 30  1  0
  9 31  1  0
  9 32  1  0
 10 33  1  0
 10 34  1  0
 12 35  1  0
 13 36  1  0
 14 37  1  0
 15 38  1  0
 19 39  1  0
 20 40  1  0
 20 41  1  0
 21 42  1  0
 21 43  1  0
 23 44  1  0
 24 45  1  0
 24 46  1  0
 25 47  1  0
 25 48  1  0
 26 49  1  0
 26 50  1  0
 27 51  1  0
 27 52  1  0
M  END
>  <Energy>  (244) 
383.50643791874279

>  <compound_id>  (244) 
46365

>  <target_id>  (244) 
1

>  <reference_id>  (244) 
51

>  <inspiration_ids>  (244) 
[51, 44]

>  <energy_score>  (244) 
346.45783520047905

>  <distance_score>  (244) 
8.637092100892922

>  <path>  (244) 
/opt/xchem-fragalysis-2/maxwin/BulkDock/SCRATCH/511023/C46365-P51/C46365-P51.minimised.mol

>  <scratch_subdir>  (244) 
/opt/xchem-fragalysis-2/maxwin/BulkDock/SCRATCH/511023/C46365-P51

>  <fragmenstein_runtime>  (244) 
19.314599752426147

>  <fragmenstein_outcome>  (244) 
too moved

>  <fragmenstein_mode>  (244) 
expansion

>  <fragmenstein_error>  (244) 


$$$$
C46365-P44
     RDKit          3D

 52 55  0  0  0  0  0  0  0  0999 V2000
   -5.4626    0.8651   14.7471 O   0  0  0  0  0  0  0  0  0  0  0  0
   -6.3649    0.2290   14.5077 C   0  0  0  0  0  0  0  0  0  0  0  0
   -6.6169   -0.2404   12.5552 C   0  0  0  0  0  0  0  0  0  0  0  0
   -7.2069    0.0065   10.7673 N   0  0  0  0  0  0  0  0  0  0  0  0
   -8.3989    0.5081   10.2217 C   0  0  0  0  0  0  0  0  0  0  0  0
   -9.1996    1.3650   10.5652 O   0  0  0  0  0  0  0  0  0  0  0  0
   -8.6556    0.0381    8.9607 N   0  0  0  0  0  0  0  0  0  0  0  0
   -7.4540   -0.2173    8.3015 C   0  0  0  0  0  0  0  0  0  0  0  0
   -7.4936   -1.4854    7.4397 C   0  0  0  0  0  0  0  0  0  0  0  0
   -6.4256   -1.2994    6.3542 C   0  0  0  0  0  0  0  0  0  0  0  0
   -6.5057    0.1817    6.1465 C   0  0  0  0  0  0  0  0  0  0  0  0
   -6.0807    0.9078    5.0474 C   0  0  0  0  0  0  0  0  0  0  0  0
   -6.2523    2.2922    5.0635 C   0  0  0  0  0  0  0  0  0  0  0  0
   -6.8362    2.9259    6.1699 C   0  0  0  0  0  0  0  0  0  0  0  0
   -7.2550    2.1861    7.2779 C   0  0  0  0  0  0  0  0  0  0  0  0
   -7.0818    0.8106    7.2607 C   0  0  0  0  0  0  0  0  0  0  0  0
   -6.5235   -0.2508    9.5208 C   0  0  0  0  0  0  0  0  0  0  0  0
   -5.3200   -0.4174    9.3028 O   0  0  0  0  0  0  0  0  0  0  0  0
   -7.5223   -0.0975   15.8653 N   0  0  0  0  0  0  0  0  0  0  0  0
   -7.5857    0.5444   17.5813 C   0  0  0  0  0  0  0  0  0  0  0  0
   -6.3431    1.7387   18.2702 C   0  0  0  0  0  0  0  0  0  0  0  0
   -6.1235    3.4191   18.7012 C   0  0  0  0  0  0  0  0  0  0  0  0
   -6.6463    4.5692   18.2063 C   0  0  0  0  0  0  0  0  0  0  0  0
   -6.4059    6.0007   18.6420 C   0  0  0  0  0  0  0  0  0  0  0  0
   -5.1320    6.2787   19.4206 C   0  0  0  0  0  0  0  0  0  0  0  0
   -4.9130    5.1725   20.4244 C   0  0  0  0  0  0  0  0  0  0  0  0
   -4.9877    3.8126   19.6731 C   0  0  0  0  0  0  0  0  0  0  0  0
   -6.5510    0.8587   12.4645 H   0  0  0  0  0  0  0  0  0  0  0  0
   -5.6925   -0.5209   12.1306 H   0  0  0  0  0  0  0  0  0  0  0  0
   -9.4146    0.5072    8.4840 H   0  0  0  0  0  0  0  0  0  0  0  0
   -8.4768   -1.5720    6.9517 H   0  0  0  0  0  0  0  0  0  0  0  0
   -7.3552   -2.4086    7.9940 H   0  0  0  0  0  0  0  0  0  0  0  0
   -5.4304   -1.5825    6.7116 H   0  0  0  0  0  0  0  0  0  0  0  0
   -6.6750   -1.8626    5.4506 H   0  0  0  0  0  0  0  0  0  0  0  0
   -5.6282    0.4159    4.1922 H   0  0  0  0  0  0  0  0  0  0  0  0
   -5.9337    2.8862    4.2097 H   0  0  0  0  0  0  0  0  0  0  0  0
   -6.9689    4.0060    6.1636 H   0  0  0  0  0  0  0  0  0  0  0  0
   -7.7155    2.6892    8.1242 H   0  0  0  0  0  0  0  0  0  0  0  0
   -8.2013   -0.7338   15.5533 H   0  0  0  0  0  0  0  0  0  0  0  0
   -8.2079   -0.2363   18.0028 H   0  0  0  0  0  0  0  0  0  0  0  0
   -8.4656    1.1368   17.7177 H   0  0  0  0  0  0  0  0  0  0  0  0
   -5.4556    1.5608   17.6656 H   0  0  0  0  0  0  0  0  0  0  0  0
   -6.1890    1.3077   19.2445 H   0  0  0  0  0  0  0  0  0  0  0  0
   -7.3045    4.5817   17.3565 H   0  0  0  0  0  0  0  0  0  0  0  0
   -7.2734    6.3112   19.2383 H   0  0  0  0  0  0  0  0  0  0  0  0
   -6.4040    6.6390   17.7494 H   0  0  0  0  0  0  0  0  0  0  0  0
   -4.2820    6.3329   18.7284 H   0  0  0  0  0  0  0  0  0  0  0  0
   -5.1916    7.2522   19.9198 H   0  0  0  0  0  0  0  0  0  0  0  0
   -3.9198    5.2792   20.8778 H   0  0  0  0  0  0  0  0  0  0  0  0
   -5.6327    5.3154   21.2281 H   0  0  0  0  0  0  0  0  0  0  0  0
   -4.6868    2.9817   20.3115 H   0  0  0  0  0  0  0  0  0  0  0  0
   -4.2113    4.0693   18.9772 H   0  0  0  0  0  0  0  0  0  0  0  0
  1  2  2  0
  2  3  1  0
  3  4  1  0
  4  5  1  0
  5  6  2  0
  5  7  1  0
  7  8  1  0
  8  9  1  0
  9 10  1  0
 10 11  1  0
 11 12  2  0
 12 13  1  0
 13 14  2  0
 14 15  1  0
 15 16  2  0
  8 17  1  0
 17 18  2  0
  2 19  1  0
 19 20  1  0
 20 21  1  0
 21 22  1  0
 22 23  2  0
 23 24  1  0
 24 25  1  0
 25 26  1  0
 26 27  1  0
 17  4  1  0
 27 22  1  0
 16  8  1  0
 16 11  1  0
  3 28  1  0
  3 29  1  0
  7 30  1  0
  9 31  1  0
  9 32  1  0
 10 33  1  0
 10 34  1  0
 12 35  1  0
 13 36  1  0
 14 37  1  0
 15 38  1  0
 19 39  1  0
 20 40  1  0
 20 41  1  0
 21 42  1  0
 21 43  1  0
 23 44  1  0
 24 45  1  0
 24 46  1  0
 25 47  1  0
 25 48  1  0
 26 49  1  0
 26 50  1  0
 27 51  1  0
 27 52  1  0
M  END
>  <Energy>  (245) 
382.48081477072833

>  <compound_id>  (245) 
46365

>  <target_id>  (245) 
1

>  <reference_id>  (245) 
44

>  <inspiration_ids>  (245) 
[51, 44]

>  <energy_score>  (245) 
345.43221205245186

>  <distance_score>  (245) 
7.599538548011777

>  <path>  (245) 
/opt/xchem-fragalysis-2/maxwin/BulkDock/SCRATCH/511023/C46365-P44/C46365-P44.minimised.mol

>  <scratch_subdir>  (245) 
/opt/xchem-fragalysis-2/maxwin/BulkDock/SCRATCH/511023/C46365-P44

>  <fragmenstein_runtime>  (245) 
19.39389443397522

>  <fragmenstein_outcome>  (245) 
too moved

>  <fragmenstein_mode>  (245) 
expansion

>  <fragmenstein_error>  (245) 


$$$$
C18086-P30
     RDKit          3D

 43 44  0  0  0  0  0  0  0  0999 V2000
  -10.8564  -26.3340   10.8963 C   0  0  0  0  0  0  0  0  0  0  0  0
  -11.1838  -25.8729   12.3130 C   0  0  0  0  0  0  0  0  0  0  0  0
  -10.0790  -24.9768   12.8488 C   0  0  0  0  0  0  0  0  0  0  0  0
  -11.5024  -27.3151   13.3555 S   0  0  0  0  0  0  0  0  0  0  0  0
  -10.3452  -28.1873   13.3208 O   0  0  0  0  0  0  0  0  0  0  0  0
  -12.8082  -27.8220   12.9720 O   0  0  0  0  0  0  0  0  0  0  0  0
  -11.6705  -26.6723   14.9825 C   0  0  0  0  0  0  0  0  0  0  0  0
  -10.4688  -26.6376   15.8237 C   0  0  0  0  0  0  0  0  0  0  0  0
  -11.2399  -26.6542   17.1381 C   0  0  0  0  0  0  0  0  0  0  0  0
  -11.9121  -27.8878   17.3260 N   0  0  0  0  0  0  0  0  0  0  0  0
  -12.5511  -27.9361   18.6199 C   0  0  0  0  0  0  0  0  0  0  0  0
  -13.6656  -27.6095   18.9516 O   0  0  0  0  0  0  0  0  0  0  0  0
  -11.8227  -28.6044   19.7282 N   0  0  0  0  0  0  0  0  0  0  0  0
  -12.0321  -30.1796   19.7283 C   0  0  0  0  0  0  0  0  0  0  0  0
  -10.5902  -27.8322   21.2661 C   0  0  0  0  0  0  0  0  0  0  0  0
  -10.7874  -27.3019   23.3667 C   0  0  0  0  0  0  0  0  0  0  0  0
  -12.0031  -27.6440   24.4582 N   0  0  0  0  0  0  0  0  0  0  0  0
  -12.0436  -27.1685   25.7433 C   0  0  0  0  0  0  0  0  0  0  0  0
  -10.8093  -26.7207   25.8647 C   0  0  0  0  0  0  0  0  0  0  0  0
  -10.1872  -27.5666   24.9214 N   0  0  0  0  0  0  0  0  0  0  0  0
  -12.4783  -27.5165   15.9359 C   0  0  0  0  0  0  0  0  0  0  0  0
  -11.6410  -26.9908   10.5056 H   0  0  0  0  0  0  0  0  0  0  0  0
   -9.9133  -26.8905   10.8643 H   0  0  0  0  0  0  0  0  0  0  0  0
  -10.7715  -25.4830   10.2171 H   0  0  0  0  0  0  0  0  0  0  0  0
  -12.1229  -25.3070   12.2932 H   0  0  0  0  0  0  0  0  0  0  0  0
   -9.8758  -24.1575   12.1528 H   0  0  0  0  0  0  0  0  0  0  0  0
   -9.1536  -25.5405   12.9960 H   0  0  0  0  0  0  0  0  0  0  0  0
  -10.3593  -24.5181   13.8003 H   0  0  0  0  0  0  0  0  0  0  0  0
  -12.1520  -25.6933   14.8815 H   0  0  0  0  0  0  0  0  0  0  0  0
   -9.8333  -27.5266   15.7317 H   0  0  0  0  0  0  0  0  0  0  0  0
   -9.8517  -25.7689   15.6202 H   0  0  0  0  0  0  0  0  0  0  0  0
  -11.9379  -25.8336   17.2644 H   0  0  0  0  0  0  0  0  0  0  0  0
  -10.5454  -26.7187   17.9192 H   0  0  0  0  0  0  0  0  0  0  0  0
  -11.0583  -30.6586   19.8449 H   0  0  0  0  0  0  0  0  0  0  0  0
  -12.4766  -30.4554   18.7675 H   0  0  0  0  0  0  0  0  0  0  0  0
  -12.6668  -30.5793   20.5198 H   0  0  0  0  0  0  0  0  0  0  0  0
  -10.2869  -27.1156   20.4972 H   0  0  0  0  0  0  0  0  0  0  0  0
  -10.4047  -26.6347   21.4362 H   0  0  0  0  0  0  0  0  0  0  0  0
  -12.9292  -27.1471   26.3601 H   0  0  0  0  0  0  0  0  0  0  0  0
  -10.3695  -26.1521   26.6657 H   0  0  0  0  0  0  0  0  0  0  0  0
   -9.2488  -27.8399   24.7897 H   0  0  0  0  0  0  0  0  0  0  0  0
  -12.7058  -28.4992   15.5000 H   0  0  0  0  0  0  0  0  0  0  0  0
  -13.4703  -27.0650   16.1040 H   0  0  0  0  0  0  0  0  0  0  0  0
  1  2  1  0
  2  3  1  0
  2  4  1  0
  4  5  2  0
  4  6  2  0
  4  7  1  0
  7  8  1  0
  8  9  1  0
  9 10  1  0
 10 11  1  0
 11 12  2  0
 11 13  1  0
 13 14  1  0
 13 15  1  0
 15 16  1  0
 16 17  2  0
 17 18  1  0
 18 19  2  0
 19 20  1  0
 10 21  1  0
 21  7  1  0
 20 16  1  0
  1 22  1  0
  1 23  1  0
  1 24  1  0
  2 25  1  0
  3 26  1  0
  3 27  1  0
  3 28  1  0
  7 29  1  0
  8 30  1  0
  8 31  1  0
  9 32  1  0
  9 33  1  0
 14 34  1  0
 14 35  1  0
 14 36  1  0
 15 37  1  0
 15 38  1  0
 18 39  1  0
 19 40  1  0
 20 41  1  0
 21 42  1  0
 21 43  1  0
M  END
>  <Energy>  (246) 
557.21607651383056

>  <compound_id>  (246) 
18086

>  <target_id>  (246) 
1

>  <reference_id>  (246) 
30

>  <inspiration_ids>  (246) 
[30, 64]

>  <energy_score>  (246) 
560.1990336861918

>  <distance_score>  (246) 
3.7391766407567157

>  <path>  (246) 
/opt/xchem-fragalysis-2/maxwin/BulkDock/SCRATCH/511023/C18086-P30/C18086-P30.minimised.mol

>  <scratch_subdir>  (246) 
/opt/xchem-fragalysis-2/maxwin/BulkDock/SCRATCH/511023/C18086-P30

>  <fragmenstein_runtime>  (246) 
11.47610354423523

>  <fragmenstein_outcome>  (246) 
too moved

>  <fragmenstein_mode>  (246) 
expansion

>  <fragmenstein_error>  (246) 


$$$$
C18086-P64
     RDKit          3D

 43 44  0  0  0  0  0  0  0  0999 V2000
   -9.8006  -23.5740   11.3238 C   0  0  0  0  0  0  0  0  0  0  0  0
  -10.8230  -24.5387   11.9315 C   0  0  0  0  0  0  0  0  0  0  0  0
  -10.3151  -24.9869   13.2957 C   0  0  0  0  0  0  0  0  0  0  0  0
  -11.0987  -25.9254   10.7882 S   0  0  0  0  0  0  0  0  0  0  0  0
  -10.0675  -26.9189   11.0058 O   0  0  0  0  0  0  0  0  0  0  0  0
  -11.2189  -25.3392    9.4591 O   0  0  0  0  0  0  0  0  0  0  0  0
  -12.7000  -26.6504   11.0780 C   0  0  0  0  0  0  0  0  0  0  0  0
  -12.7672  -28.1329   10.9457 C   0  0  0  0  0  0  0  0  0  0  0  0
  -13.6652  -28.4277   12.1325 C   0  0  0  0  0  0  0  0  0  0  0  0
  -13.2483  -27.6645   13.3663 N   0  0  0  0  0  0  0  0  0  0  0  0
  -12.0921  -28.2802   13.9657 C   0  0  0  0  0  0  0  0  0  0  0  0
  -10.9278  -28.0783   13.7895 O   0  0  0  0  0  0  0  0  0  0  0  0
  -12.5715  -29.1802   14.9614 N   0  0  0  0  0  0  0  0  0  0  0  0
  -12.7730  -28.4318   16.1288 C   0  0  0  0  0  0  0  0  0  0  0  0
  -13.0649  -29.0687   16.7831 C   0  0  0  0  0  0  0  0  0  0  0  0
  -12.8921  -30.6447   17.3173 C   0  0  0  0  0  0  0  0  0  0  0  0
  -12.8337  -31.0022   18.5924 N   0  0  0  0  0  0  0  0  0  0  0  0
  -12.7582  -32.3610   18.6018 C   0  0  0  0  0  0  0  0  0  0  0  0
  -12.7119  -32.8329   17.3130 C   0  0  0  0  0  0  0  0  0  0  0  0
  -12.7834  -31.7287   16.5005 N   0  0  0  0  0  0  0  0  0  0  0  0
  -13.3603  -26.5043   12.4191 C   0  0  0  0  0  0  0  0  0  0  0  0
   -8.8451  -24.0771   11.1419 H   0  0  0  0  0  0  0  0  0  0  0  0
   -9.6184  -22.7242   11.9906 H   0  0  0  0  0  0  0  0  0  0  0  0
  -10.1531  -23.1692   10.3697 H   0  0  0  0  0  0  0  0  0  0  0  0
  -11.7761  -24.0079   12.0237 H   0  0  0  0  0  0  0  0  0  0  0  0
  -10.0277  -24.1239   13.9046 H   0  0  0  0  0  0  0  0  0  0  0  0
   -9.4414  -25.6383   13.2040 H   0  0  0  0  0  0  0  0  0  0  0  0
  -11.0704  -25.5327   13.8599 H   0  0  0  0  0  0  0  0  0  0  0  0
  -13.3538  -26.1690   10.3383 H   0  0  0  0  0  0  0  0  0  0  0  0
  -11.8033  -28.6365   11.0594 H   0  0  0  0  0  0  0  0  0  0  0  0
  -13.2142  -28.4616   10.0028 H   0  0  0  0  0  0  0  0  0  0  0  0
  -13.5869  -29.4991   12.3648 H   0  0  0  0  0  0  0  0  0  0  0  0
  -14.7369  -28.2716   11.9215 H   0  0  0  0  0  0  0  0  0  0  0  0
  -12.5771  -27.2503   16.1813 H   0  0  0  0  0  0  0  0  0  0  0  0
  -13.6950  -27.8194   15.6315 H   0  0  0  0  0  0  0  0  0  0  0  0
  -11.5857  -28.1912   16.1640 H   0  0  0  0  0  0  0  0  0  0  0  0
  -14.2531  -29.1327   16.9191 H   0  0  0  0  0  0  0  0  0  0  0  0
  -12.4283  -28.7019   17.7884 H   0  0  0  0  0  0  0  0  0  0  0  0
  -12.7232  -32.9269   19.5240 H   0  0  0  0  0  0  0  0  0  0  0  0
  -12.6346  -33.8310   16.9053 H   0  0  0  0  0  0  0  0  0  0  0  0
  -12.7454  -31.6959   15.4879 H   0  0  0  0  0  0  0  0  0  0  0  0
  -14.4301  -26.2481   12.3163 H   0  0  0  0  0  0  0  0  0  0  0  0
  -12.9657  -25.6498   12.9697 H   0  0  0  0  0  0  0  0  0  0  0  0
  1  2  1  0
  2  3  1  0
  2  4  1  0
  4  5  2  0
  4  6  2  0
  4  7  1  0
  7  8  1  0
  8  9  1  0
  9 10  1  0
 10 11  1  0
 11 12  2  0
 11 13  1  0
 13 14  1  0
 13 15  1  0
 15 16  1  0
 16 17  2  0
 17 18  1  0
 18 19  2  0
 19 20  1  0
 10 21  1  0
 21  7  1  0
 20 16  1  0
  1 22  1  0
  1 23  1  0
  1 24  1  0
  2 25  1  0
  3 26  1  0
  3 27  1  0
  3 28  1  0
  7 29  1  0
  8 30  1  0
  8 31  1  0
  9 32  1  0
  9 33  1  0
 14 34  1  0
 14 35  1  0
 14 36  1  0
 15 37  1  0
 15 38  1  0
 18 39  1  0
 19 40  1  0
 20 41  1  0
 21 42  1  0
 21 43  1  0
M  END
>  <Energy>  (247) 
567.4381581397023

>  <compound_id>  (247) 
18086

>  <target_id>  (247) 
1

>  <reference_id>  (247) 
64

>  <inspiration_ids>  (247) 
[30, 64]

>  <energy_score>  (247) 
570.4211153120618

>  <distance_score>  (247) 
7.436772766688906

>  <path>  (247) 
/opt/xchem-fragalysis-2/maxwin/BulkDock/SCRATCH/511023/C18086-P64/C18086-P64.minimised.mol

>  <scratch_subdir>  (247) 
/opt/xchem-fragalysis-2/maxwin/BulkDock/SCRATCH/511023/C18086-P64

>  <fragmenstein_runtime>  (247) 
12.477072477340698

>  <fragmenstein_outcome>  (247) 
too moved

>  <fragmenstein_mode>  (247) 
expansion

>  <fragmenstein_error>  (247) 


$$$$
C18088-P30
     RDKit          3D

 42 45  0  0  0  0  0  0  0  0999 V2000
  -10.2753  -25.8857   11.1403 C   0  0  0  0  0  0  0  0  0  0  0  0
  -10.2760  -26.4617   12.5481 C   0  0  0  0  0  0  0  0  0  0  0  0
   -9.1898  -27.3865   12.6434 O   0  0  0  0  0  0  0  0  0  0  0  0
  -11.5882  -27.1964   12.8374 C   0  0  0  0  0  0  0  0  0  0  0  0
  -11.7729  -27.3932   14.2604 N   0  0  0  0  0  0  0  0  0  0  0  0
  -10.9906  -28.1770   15.0558 C   0  0  0  0  0  0  0  0  0  0  0  0
  -11.3147  -28.0535   16.3215 N   0  0  0  0  0  0  0  0  0  0  0  0
  -12.3636  -27.1589   16.3549 C   0  0  0  0  0  0  0  0  0  0  0  0
  -13.0765  -26.5516   17.4242 C   0  0  0  0  0  0  0  0  0  0  0  0
  -12.7361  -26.6181   18.8208 N   0  0  0  0  0  0  0  0  0  0  0  0
  -13.0997  -25.3460   19.4942 C   0  0  0  0  0  0  0  0  0  0  0  0
  -11.6594  -24.7546   20.5623 C   0  0  0  0  0  0  0  0  0  0  0  0
  -10.3647  -26.2453   21.1431 C   0  0  0  0  0  0  0  0  0  0  0  0
  -10.5559  -27.0462   23.1212 C   0  0  0  0  0  0  0  0  0  0  0  0
  -11.0843  -26.3339   24.5333 N   0  0  0  0  0  0  0  0  0  0  0  0
  -11.5407  -26.8342   25.7132 C   0  0  0  0  0  0  0  0  0  0  0  0
  -10.7078  -27.8330   25.8182 C   0  0  0  0  0  0  0  0  0  0  0  0
   -9.8951  -27.6663   24.6754 N   0  0  0  0  0  0  0  0  0  0  0  0
  -11.2188  -26.7176   19.1773 C   0  0  0  0  0  0  0  0  0  0  0  0
  -14.1284  -25.7518   17.0395 N   0  0  0  0  0  0  0  0  0  0  0  0
  -14.3598  -25.5033   15.7320 C   0  0  0  0  0  0  0  0  0  0  0  0
  -13.6582  -25.9304   14.6716 N   0  0  0  0  0  0  0  0  0  0  0  0
  -12.6884  -26.7708   15.0595 C   0  0  0  0  0  0  0  0  0  0  0  0
  -10.4038  -26.6758   10.3922 H   0  0  0  0  0  0  0  0  0  0  0  0
  -11.0742  -25.1490   11.0144 H   0  0  0  0  0  0  0  0  0  0  0  0
   -9.3156  -25.4041   10.9259 H   0  0  0  0  0  0  0  0  0  0  0  0
  -10.1065  -25.6591   13.2760 H   0  0  0  0  0  0  0  0  0  0  0  0
   -8.3612  -26.8743   12.6071 H   0  0  0  0  0  0  0  0  0  0  0  0
  -11.6043  -28.1912   12.3770 H   0  0  0  0  0  0  0  0  0  0  0  0
  -12.4474  -26.6285   12.4650 H   0  0  0  0  0  0  0  0  0  0  0  0
  -10.1848  -28.7871   14.6660 H   0  0  0  0  0  0  0  0  0  0  0  0
  -13.9205  -25.6863   20.1012 H   0  0  0  0  0  0  0  0  0  0  0  0
  -13.4947  -24.5585   18.8619 H   0  0  0  0  0  0  0  0  0  0  0  0
  -11.5394  -23.7178   20.8940 H   0  0  0  0  0  0  0  0  0  0  0  0
  -12.4827  -24.8359   21.1912 H   0  0  0  0  0  0  0  0  0  0  0  0
  -10.4391  -27.3846   20.9461 H   0  0  0  0  0  0  0  0  0  0  0  0
  -12.2110  -26.3328   26.3928 H   0  0  0  0  0  0  0  0  0  0  0  0
  -10.4478  -28.4596   26.6655 H   0  0  0  0  0  0  0  0  0  0  0  0
   -9.1245  -28.1517   24.3193 H   0  0  0  0  0  0  0  0  0  0  0  0
  -10.6676  -27.1417   18.3034 H   0  0  0  0  0  0  0  0  0  0  0  0
  -11.1905  -25.8569   18.5623 H   0  0  0  0  0  0  0  0  0  0  0  0
  -15.2075  -24.8583   15.5185 H   0  0  0  0  0  0  0  0  0  0  0  0
  1  2  1  0
  2  3  1  0
  2  4  1  0
  4  5  1  0
  5  6  1  0
  6  7  2  0
  7  8  1  0
  8  9  2  0
  9 10  1  0
 10 11  1  0
 11 12  1  0
 12 13  1  0
 13 14  1  0
 14 15  2  0
 15 16  1  0
 16 17  2  0
 17 18  1  0
 13 19  1  0
  9 20  1  0
 20 21  2  0
 21 22  1  0
 22 23  2  0
 23  5  1  0
 23  8  1  0
 19 10  1  0
 18 14  1  0
  1 24  1  0
  1 25  1  0
  1 26  1  0
  2 27  1  0
  3 28  1  0
  4 29  1  0
  4 30  1  0
  6 31  1  0
 11 32  1  0
 11 33  1  0
 12 34  1  0
 12 35  1  0
 13 36  1  0
 16 37  1  0
 17 38  1  0
 18 39  1  0
 19 40  1  0
 19 41  1  0
 21 42  1  0
M  END
>  <Energy>  (248) 
736.54268641550902

>  <compound_id>  (248) 
18088

>  <target_id>  (248) 
1

>  <reference_id>  (248) 
30

>  <inspiration_ids>  (248) 
[30, 64]

>  <energy_score>  (248) 
647.292713304629

>  <distance_score>  (248) 
3.80461352798295

>  <path>  (248) 
/opt/xchem-fragalysis-2/maxwin/BulkDock/SCRATCH/511023/C18088-P30/C18088-P30.minimised.mol

>  <scratch_subdir>  (248) 
/opt/xchem-fragalysis-2/maxwin/BulkDock/SCRATCH/511023/C18088-P30

>  <fragmenstein_runtime>  (248) 
8.610935926437378

>  <fragmenstein_outcome>  (248) 
too moved

>  <fragmenstein_mode>  (248) 
expansion

>  <fragmenstein_error>  (248) 


$$$$
C18088-P64
     RDKit          3D

 42 45  0  0  0  0  0  0  0  0999 V2000
  -13.4566  -27.4349   10.6736 C   0  0  0  0  0  0  0  0  0  0  0  0
  -13.6651  -27.8927   12.1114 C   0  0  0  0  0  0  0  0  0  0  0  0
  -14.4959  -29.0583   12.0881 O   0  0  0  0  0  0  0  0  0  0  0  0
  -14.3667  -26.8058   12.9328 C   0  0  0  0  0  0  0  0  0  0  0  0
  -14.2664  -27.0599   14.3548 N   0  0  0  0  0  0  0  0  0  0  0  0
  -15.2444  -27.4785   15.2049 C   0  0  0  0  0  0  0  0  0  0  0  0
  -14.7812  -27.6647   16.4251 N   0  0  0  0  0  0  0  0  0  0  0  0
  -13.4225  -27.3787   16.3554 C   0  0  0  0  0  0  0  0  0  0  0  0
  -12.3519  -27.4429   17.3031 C   0  0  0  0  0  0  0  0  0  0  0  0
  -12.5117  -27.8820   18.6948 N   0  0  0  0  0  0  0  0  0  0  0  0
  -13.8020  -26.4451   19.3663 C   0  0  0  0  0  0  0  0  0  0  0  0
  -14.2063  -27.1220   21.2784 C   0  0  0  0  0  0  0  0  0  0  0  0
  -12.1796  -27.9341   22.0734 C   0  0  0  0  0  0  0  0  0  0  0  0
  -12.0664  -27.2304   23.8557 C   0  0  0  0  0  0  0  0  0  0  0  0
  -13.0320  -26.5054   24.4201 N   0  0  0  0  0  0  0  0  0  0  0  0
  -12.5600  -26.1239   25.6550 C   0  0  0  0  0  0  0  0  0  0  0  0
  -11.3593  -26.7311   25.9163 C   0  0  0  0  0  0  0  0  0  0  0  0
  -11.1170  -27.5273   24.8255 N   0  0  0  0  0  0  0  0  0  0  0  0
  -11.1513  -28.1755   20.2170 C   0  0  0  0  0  0  0  0  0  0  0  0
  -11.1568  -27.0436   16.7803 N   0  0  0  0  0  0  0  0  0  0  0  0
  -10.9932  -26.6626   15.4950 C   0  0  0  0  0  0  0  0  0  0  0  0
  -11.9319  -26.5777   14.5601 N   0  0  0  0  0  0  0  0  0  0  0  0
  -13.1111  -26.9596   15.0654 C   0  0  0  0  0  0  0  0  0  0  0  0
  -12.9929  -28.2312   10.0815 H   0  0  0  0  0  0  0  0  0  0  0  0
  -14.4135  -27.2027   10.1931 H   0  0  0  0  0  0  0  0  0  0  0  0
  -12.8153  -26.5494   10.6276 H   0  0  0  0  0  0  0  0  0  0  0  0
  -12.7013  -28.1787   12.5448 H   0  0  0  0  0  0  0  0  0  0  0  0
  -13.9775  -29.7736   11.6778 H   0  0  0  0  0  0  0  0  0  0  0  0
  -15.4333  -26.7506   12.6851 H   0  0  0  0  0  0  0  0  0  0  0  0
  -13.9225  -25.8189   12.7575 H   0  0  0  0  0  0  0  0  0  0  0  0
  -16.2659  -27.6451   14.8875 H   0  0  0  0  0  0  0  0  0  0  0  0
  -14.6649  -26.3951   18.6748 H   0  0  0  0  0  0  0  0  0  0  0  0
  -13.3478  -25.4246   19.3459 H   0  0  0  0  0  0  0  0  0  0  0  0
  -14.4725  -25.9795   21.3359 H   0  0  0  0  0  0  0  0  0  0  0  0
  -14.9969  -26.9840   22.1307 H   0  0  0  0  0  0  0  0  0  0  0  0
  -11.0688  -28.1001   22.0956 H   0  0  0  0  0  0  0  0  0  0  0  0
  -13.1237  -25.4546   26.2920 H   0  0  0  0  0  0  0  0  0  0  0  0
  -10.7186  -26.7278   26.7865 H   0  0  0  0  0  0  0  0  0  0  0  0
  -10.4682  -28.2980   24.7699 H   0  0  0  0  0  0  0  0  0  0  0  0
  -10.5497  -27.5128   19.6214 H   0  0  0  0  0  0  0  0  0  0  0  0
  -10.7365  -27.2148   20.7385 H   0  0  0  0  0  0  0  0  0  0  0  0
   -9.9817  -26.3963   15.2003 H   0  0  0  0  0  0  0  0  0  0  0  0
  1  2  1  0
  2  3  1  0
  2  4  1  0
  4  5  1  0
  5  6  1  0
  6  7  2  0
  7  8  1  0
  8  9  2  0
  9 10  1  0
 10 11  1  0
 11 12  1  0
 12 13  1  0
 13 14  1  0
 14 15  2  0
 15 16  1  0
 16 17  2  0
 17 18  1  0
 13 19  1  0
  9 20  1  0
 20 21  2  0
 21 22  1  0
 22 23  2  0
 23  5  1  0
 23  8  1  0
 19 10  1  0
 18 14  1  0
  1 24  1  0
  1 25  1  0
  1 26  1  0
  2 27  1  0
  3 28  1  0
  4 29  1  0
  4 30  1  0
  6 31  1  0
 11 32  1  0
 11 33  1  0
 12 34  1  0
 12 35  1  0
 13 36  1  0
 16 37  1  0
 17 38  1  0
 18 39  1  0
 19 40  1  0
 19 41  1  0
 21 42  1  0
M  END
>  <Energy>  (249) 
799.78136521269334

>  <compound_id>  (249) 
18088

>  <target_id>  (249) 
1

>  <reference_id>  (249) 
64

>  <inspiration_ids>  (249) 
[30, 64]

>  <energy_score>  (249) 
710.5313921018096

>  <distance_score>  (249) 
3.727718009557904

>  <path>  (249) 
/opt/xchem-fragalysis-2/maxwin/BulkDock/SCRATCH/511023/C18088-P64/C18088-P64.minimised.mol

>  <scratch_subdir>  (249) 
/opt/xchem-fragalysis-2/maxwin/BulkDock/SCRATCH/511023/C18088-P64

>  <fragmenstein_runtime>  (249) 
6.286142587661743

>  <fragmenstein_outcome>  (249) 
too moved

>  <fragmenstein_mode>  (249) 
expansion

>  <fragmenstein_error>  (249) 


$$$$
C18091-P30
     RDKit          3D

 38 39  0  0  0  0  0  0  0  0999 V2000
   -4.8021  -29.7222   14.1261 O   0  0  0  0  0  0  0  0  0  0  0  0
   -5.5801  -29.6993   15.0370 C   0  0  0  0  0  0  0  0  0  0  0  0
   -5.2025  -30.3944   16.3443 C   0  0  0  0  0  0  0  0  0  0  0  0
   -4.9686  -29.2185   17.7181 S   0  0  0  0  0  0  0  0  0  0  0  0
   -5.2151  -30.4200   19.0722 C   0  0  0  0  0  0  0  0  0  0  0  0
   -5.7149  -29.8431   20.3595 C   0  0  0  0  0  0  0  0  0  0  0  0
   -6.8126  -30.1933   21.0100 N   0  0  0  0  0  0  0  0  0  0  0  0
   -6.7387  -29.5644   22.2221 C   0  0  0  0  0  0  0  0  0  0  0  0
   -5.5878  -28.8234   22.3145 C   0  0  0  0  0  0  0  0  0  0  0  0
   -4.9967  -28.9285   21.0886 N   0  0  0  0  0  0  0  0  0  0  0  0
   -6.9200  -29.1882   15.1128 N   0  0  0  0  0  0  0  0  0  0  0  0
   -7.7086  -28.4624   14.1518 C   0  0  0  0  0  0  0  0  0  0  0  0
   -8.2241  -29.3033   13.0364 C   0  0  0  0  0  0  0  0  0  0  0  0
   -9.6144  -28.7232   12.9639 C   0  0  0  0  0  0  0  0  0  0  0  0
  -10.2748  -28.6565   14.3223 N   0  0  0  0  0  0  0  0  0  0  0  0
  -10.6836  -29.9625   14.7390 C   0  0  0  0  0  0  0  0  0  0  0  0
  -10.0983  -30.7995   15.3803 O   0  0  0  0  0  0  0  0  0  0  0  0
  -12.1506  -30.1970   14.3039 C   0  0  0  0  0  0  0  0  0  0  0  0
  -12.7191  -29.1930   13.4783 O   0  0  0  0  0  0  0  0  0  0  0  0
   -9.0239  -27.8591   14.6436 C   0  0  0  0  0  0  0  0  0  0  0  0
   -5.9881  -31.1238   16.5698 H   0  0  0  0  0  0  0  0  0  0  0  0
   -4.2686  -30.9461   16.1953 H   0  0  0  0  0  0  0  0  0  0  0  0
   -4.2596  -30.9251   19.2515 H   0  0  0  0  0  0  0  0  0  0  0  0
   -5.9306  -31.1876   18.7588 H   0  0  0  0  0  0  0  0  0  0  0  0
   -7.5100  -29.7062   22.9628 H   0  0  0  0  0  0  0  0  0  0  0  0
   -5.1446  -28.2333   23.0994 H   0  0  0  0  0  0  0  0  0  0  0  0
   -4.1450  -28.4753   20.7826 H   0  0  0  0  0  0  0  0  0  0  0  0
   -7.2525  -29.2650   16.0811 H   0  0  0  0  0  0  0  0  0  0  0  0
   -7.0490  -27.6923   13.7493 H   0  0  0  0  0  0  0  0  0  0  0  0
   -8.2421  -30.3710   13.2818 H   0  0  0  0  0  0  0  0  0  0  0  0
   -7.6703  -29.1718   12.1022 H   0  0  0  0  0  0  0  0  0  0  0  0
   -9.6653  -27.7459   12.4541 H   0  0  0  0  0  0  0  0  0  0  0  0
  -10.2239  -29.3887   12.3367 H   0  0  0  0  0  0  0  0  0  0  0  0
  -12.1965  -31.1454   13.7606 H   0  0  0  0  0  0  0  0  0  0  0  0
  -12.7591  -30.2745   15.2102 H   0  0  0  0  0  0  0  0  0  0  0  0
  -12.3461  -28.3529   13.8077 H   0  0  0  0  0  0  0  0  0  0  0  0
   -9.1690  -26.8268   14.2863 H   0  0  0  0  0  0  0  0  0  0  0  0
   -9.0074  -27.7803   15.7378 H   0  0  0  0  0  0  0  0  0  0  0  0
  1  2  2  0
  2  3  1  0
  3  4  1  0
  4  5  1  0
  5  6  1  0
  6  7  2  0
  7  8  1  0
  8  9  2  0
  9 10  1  0
  2 11  1  0
 11 12  1  0
 12 13  1  0
 13 14  1  0
 14 15  1  0
 15 16  1  0
 16 17  2  0
 16 18  1  0
 18 19  1  0
 15 20  1  0
 10  6  1  0
 20 12  1  0
  3 21  1  0
  3 22  1  0
  5 23  1  0
  5 24  1  0
  8 25  1  0
  9 26  1  0
 10 27  1  0
 11 28  1  0
 12 29  1  0
 13 30  1  0
 13 31  1  0
 14 32  1  0
 14 33  1  0
 18 34  1  0
 18 35  1  0
 19 36  1  0
 20 37  1  0
 20 38  1  0
M  END
>  <Energy>  (250) 
117.00281788175241

>  <compound_id>  (250) 
18091

>  <target_id>  (250) 
1

>  <reference_id>  (250) 
30

>  <inspiration_ids>  (250) 
[30, 64]

>  <energy_score>  (250) 
33.3236003042889

>  <distance_score>  (250) 
7.319677999869606

>  <path>  (250) 
/opt/xchem-fragalysis-2/maxwin/BulkDock/SCRATCH/511023/C18091-P30/C18091-P30.minimised.mol

>  <scratch_subdir>  (250) 
/opt/xchem-fragalysis-2/maxwin/BulkDock/SCRATCH/511023/C18091-P30

>  <fragmenstein_runtime>  (250) 
19.281550645828247

>  <fragmenstein_outcome>  (250) 
too moved

>  <fragmenstein_mode>  (250) 
expansion

>  <fragmenstein_error>  (250) 


$$$$
C18091-P64
     RDKit          3D

 38 39  0  0  0  0  0  0  0  0999 V2000
  -10.4108  -20.9047   13.5639 O   0  0  0  0  0  0  0  0  0  0  0  0
   -9.9840  -21.9158   14.0379 C   0  0  0  0  0  0  0  0  0  0  0  0
   -9.4148  -22.0810   15.6017 C   0  0  0  0  0  0  0  0  0  0  0  0
   -8.9567  -20.7560   17.5217 S   0  0  0  0  0  0  0  0  0  0  0  0
   -9.4430  -21.3316   19.6148 C   0  0  0  0  0  0  0  0  0  0  0  0
  -10.5917  -21.7507   20.6717 C   0  0  0  0  0  0  0  0  0  0  0  0
  -11.7891  -22.3021   20.6805 N   0  0  0  0  0  0  0  0  0  0  0  0
  -12.2267  -22.2567   21.9971 C   0  0  0  0  0  0  0  0  0  0  0  0
  -11.3347  -21.6616   22.8153 C   0  0  0  0  0  0  0  0  0  0  0  0
  -10.2541  -21.5670   22.0198 N   0  0  0  0  0  0  0  0  0  0  0  0
   -9.8738  -23.2693   13.4609 N   0  0  0  0  0  0  0  0  0  0  0  0
  -10.3309  -23.7973   12.1971 C   0  0  0  0  0  0  0  0  0  0  0  0
   -9.7049  -25.0981   11.8268 C   0  0  0  0  0  0  0  0  0  0  0  0
  -10.9575  -25.9194   11.6023 C   0  0  0  0  0  0  0  0  0  0  0  0
  -12.0109  -25.6558   12.6514 N   0  0  0  0  0  0  0  0  0  0  0  0
  -11.6634  -26.3005   13.8753 C   0  0  0  0  0  0  0  0  0  0  0  0
  -11.0302  -25.9007   14.8190 O   0  0  0  0  0  0  0  0  0  0  0  0
  -12.3304  -27.6862   13.9396 C   0  0  0  0  0  0  0  0  0  0  0  0
  -11.9237  -28.4110   15.0953 O   0  0  0  0  0  0  0  0  0  0  0  0
  -11.7959  -24.2352   12.1893 C   0  0  0  0  0  0  0  0  0  0  0  0
   -9.8276  -22.9836   15.8694 H   0  0  0  0  0  0  0  0  0  0  0  0
   -8.4219  -22.4221   15.2191 H   0  0  0  0  0  0  0  0  0  0  0  0
   -9.8055  -20.3679   19.4862 H   0  0  0  0  0  0  0  0  0  0  0  0
   -8.6902  -20.9529   20.2759 H   0  0  0  0  0  0  0  0  0  0  0  0
  -13.1974  -22.6149   22.2970 H   0  0  0  0  0  0  0  0  0  0  0  0
  -11.4004  -21.3288   23.8332 H   0  0  0  0  0  0  0  0  0  0  0  0
   -9.3738  -21.1498   22.2590 H   0  0  0  0  0  0  0  0  0  0  0  0
   -9.5394  -23.9090   14.1752 H   0  0  0  0  0  0  0  0  0  0  0  0
  -10.1746  -23.0143   11.4477 H   0  0  0  0  0  0  0  0  0  0  0  0
   -9.0913  -25.0404   10.9230 H   0  0  0  0  0  0  0  0  0  0  0  0
   -9.1006  -25.5313   12.6281 H   0  0  0  0  0  0  0  0  0  0  0  0
  -11.3776  -25.8141   10.5876 H   0  0  0  0  0  0  0  0  0  0  0  0
  -10.6820  -26.9811   11.6677 H   0  0  0  0  0  0  0  0  0  0  0  0
  -13.4156  -27.5532   13.9829 H   0  0  0  0  0  0  0  0  0  0  0  0
  -12.0703  -28.2771   13.0580 H   0  0  0  0  0  0  0  0  0  0  0  0
  -11.6492  -27.7288   15.7416 H   0  0  0  0  0  0  0  0  0  0  0  0
  -12.2869  -24.0828   11.2144 H   0  0  0  0  0  0  0  0  0  0  0  0
  -12.3719  -23.6225   12.8895 H   0  0  0  0  0  0  0  0  0  0  0  0
  1  2  2  0
  2  3  1  0
  3  4  1  0
  4  5  1  0
  5  6  1  0
  6  7  2  0
  7  8  1  0
  8  9  2  0
  9 10  1  0
  2 11  1  0
 11 12  1  0
 12 13  1  0
 13 14  1  0
 14 15  1  0
 15 16  1  0
 16 17  2  0
 16 18  1  0
 18 19  1  0
 15 20  1  0
 10  6  1  0
 20 12  1  0
  3 21  1  0
  3 22  1  0
  5 23  1  0
  5 24  1  0
  8 25  1  0
  9 26  1  0
 10 27  1  0
 11 28  1  0
 12 29  1  0
 13 30  1  0
 13 31  1  0
 14 32  1  0
 14 33  1  0
 18 34  1  0
 18 35  1  0
 19 36  1  0
 20 37  1  0
 20 38  1  0
M  END
>  <Energy>  (251) 
347.17051531249973

>  <compound_id>  (251) 
18091

>  <target_id>  (251) 
1

>  <reference_id>  (251) 
64

>  <inspiration_ids>  (251) 
[30, 64]

>  <energy_score>  (251) 
263.4912977350383

>  <distance_score>  (251) 
4.758221996183597

>  <path>  (251) 
/opt/xchem-fragalysis-2/maxwin/BulkDock/SCRATCH/511023/C18091-P64/C18091-P64.minimised.mol

>  <scratch_subdir>  (251) 
/opt/xchem-fragalysis-2/maxwin/BulkDock/SCRATCH/511023/C18091-P64

>  <fragmenstein_runtime>  (251) 
8.8369722366333

>  <fragmenstein_outcome>  (251) 
too moved

>  <fragmenstein_mode>  (251) 
expansion

>  <fragmenstein_error>  (251) 


$$$$
C18095-P30
     RDKit          3D

 41 42  0  0  0  0  0  0  0  0999 V2000
  -14.7609  -26.0847   15.3769 C   0  0  0  0  0  0  0  0  0  0  0  0
  -13.7223  -26.3623   16.4125 N   0  0  0  0  0  0  0  0  0  0  0  0
  -13.8369  -26.9422   17.7224 C   0  0  0  0  0  0  0  0  0  0  0  0
  -14.7846  -27.4334   18.2798 O   0  0  0  0  0  0  0  0  0  0  0  0
  -12.5018  -26.7612   18.4801 C   0  0  0  0  0  0  0  0  0  0  0  0
  -12.1172  -28.2075   19.5411 S   0  0  0  0  0  0  0  0  0  0  0  0
  -10.6388  -27.7832   21.6178 C   0  0  0  0  0  0  0  0  0  0  0  0
  -10.8816  -27.3530   23.7494 C   0  0  0  0  0  0  0  0  0  0  0  0
  -10.7506  -26.3355   24.7711 N   0  0  0  0  0  0  0  0  0  0  0  0
  -11.0523  -26.3724   26.1106 C   0  0  0  0  0  0  0  0  0  0  0  0
  -11.5717  -27.5756   26.3026 C   0  0  0  0  0  0  0  0  0  0  0  0
  -11.8645  -27.9170   25.0177 N   0  0  0  0  0  0  0  0  0  0  0  0
  -13.3025  -27.4529   15.3698 C   0  0  0  0  0  0  0  0  0  0  0  0
  -12.3659  -26.9452   14.2873 C   0  0  0  0  0  0  0  0  0  0  0  0
  -11.2945  -28.0210   14.2957 C   0  0  0  0  0  0  0  0  0  0  0  0
  -11.8729  -29.3628   14.6628 N   0  0  0  0  0  0  0  0  0  0  0  0
  -10.8762  -30.3774   14.5625 C   0  0  0  0  0  0  0  0  0  0  0  0
  -10.1050  -30.8037   15.3871 O   0  0  0  0  0  0  0  0  0  0  0  0
  -10.9097  -31.0002   13.1535 C   0  0  0  0  0  0  0  0  0  0  0  0
   -9.6466  -31.5291   12.7803 O   0  0  0  0  0  0  0  0  0  0  0  0
  -12.3601  -28.5765   15.8492 C   0  0  0  0  0  0  0  0  0  0  0  0
  -15.5649  -26.8341   15.3298 H   0  0  0  0  0  0  0  0  0  0  0  0
  -14.4097  -25.7038   14.4110 H   0  0  0  0  0  0  0  0  0  0  0  0
  -15.2901  -25.2179   15.8017 H   0  0  0  0  0  0  0  0  0  0  0  0
  -12.7414  -25.8636   19.0491 H   0  0  0  0  0  0  0  0  0  0  0  0
  -11.6749  -26.5735   17.7953 H   0  0  0  0  0  0  0  0  0  0  0  0
  -10.3301  -26.7826   21.1874 H   0  0  0  0  0  0  0  0  0  0  0  0
  -10.1926  -28.7517   21.4938 H   0  0  0  0  0  0  0  0  0  0  0  0
  -10.8269  -25.5504   26.7788 H   0  0  0  0  0  0  0  0  0  0  0  0
  -11.9843  -28.0699   27.1638 H   0  0  0  0  0  0  0  0  0  0  0  0
  -12.8110  -28.0822   24.7753 H   0  0  0  0  0  0  0  0  0  0  0  0
  -14.1420  -28.0449   14.9587 H   0  0  0  0  0  0  0  0  0  0  0  0
  -11.9339  -25.9602   14.4920 H   0  0  0  0  0  0  0  0  0  0  0  0
  -12.8724  -26.9110   13.3161 H   0  0  0  0  0  0  0  0  0  0  0  0
  -10.8874  -28.1119   13.2792 H   0  0  0  0  0  0  0  0  0  0  0  0
  -10.4093  -27.7680   14.9059 H   0  0  0  0  0  0  0  0  0  0  0  0
  -11.2060  -30.2643   12.4015 H   0  0  0  0  0  0  0  0  0  0  0  0
  -11.6417  -31.8138   13.1569 H   0  0  0  0  0  0  0  0  0  0  0  0
   -9.2732  -31.9325   13.5880 H   0  0  0  0  0  0  0  0  0  0  0  0
  -12.9340  -29.2979   16.4469 H   0  0  0  0  0  0  0  0  0  0  0  0
  -11.5323  -28.2819   16.5078 H   0  0  0  0  0  0  0  0  0  0  0  0
  1  2  1  0
  2  3  1  0
  3  4  2  0
  3  5  1  0
  5  6  1  0
  6  7  1  0
  7  8  1  0
  8  9  2  0
  9 10  1  0
 10 11  2  0
 11 12  1  0
  2 13  1  0
 13 14  1  0
 14 15  1  0
 15 16  1  0
 16 17  1  0
 17 18  2  0
 17 19  1  0
 19 20  1  0
 16 21  1  0
 12  8  1  0
 21 13  1  0
  1 22  1  0
  1 23  1  0
  1 24  1  0
  5 25  1  0
  5 26  1  0
  7 27  1  0
  7 28  1  0
 10 29  1  0
 11 30  1  0
 12 31  1  0
 13 32  1  0
 14 33  1  0
 14 34  1  0
 15 35  1  0
 15 36  1  0
 19 37  1  0
 19 38  1  0
 20 39  1  0
 21 40  1  0
 21 41  1  0
M  END
>  <Energy>  (252) 
621.34510299186672

>  <compound_id>  (252) 
18095

>  <target_id>  (252) 
1

>  <reference_id>  (252) 
30

>  <inspiration_ids>  (252) 
[30, 64]

>  <energy_score>  (252) 
510.0922854075215

>  <distance_score>  (252) 
4.771998248351655

>  <path>  (252) 
/opt/xchem-fragalysis-2/maxwin/BulkDock/SCRATCH/511023/C18095-P30/C18095-P30.minimised.mol

>  <scratch_subdir>  (252) 
/opt/xchem-fragalysis-2/maxwin/BulkDock/SCRATCH/511023/C18095-P30

>  <fragmenstein_runtime>  (252) 
13.065455913543701

>  <fragmenstein_outcome>  (252) 
too moved

>  <fragmenstein_mode>  (252) 
expansion

>  <fragmenstein_error>  (252) 


$$$$
C18095-P64
     RDKit          3D

 41 42  0  0  0  0  0  0  0  0999 V2000
   -9.3597  -23.3697   13.2333 C   0  0  0  0  0  0  0  0  0  0  0  0
   -9.2250  -23.1606   14.6968 N   0  0  0  0  0  0  0  0  0  0  0  0
   -9.5534  -21.8012   15.7013 C   0  0  0  0  0  0  0  0  0  0  0  0
  -10.0568  -20.9186   15.1204 O   0  0  0  0  0  0  0  0  0  0  0  0
   -9.1317  -21.1987   17.6043 C   0  0  0  0  0  0  0  0  0  0  0  0
   -9.6494  -21.5114   19.8996 S   0  0  0  0  0  0  0  0  0  0  0  0
  -11.3052  -21.6261   20.6370 C   0  0  0  0  0  0  0  0  0  0  0  0
  -11.5951  -21.9908   22.0915 C   0  0  0  0  0  0  0  0  0  0  0  0
  -12.8125  -22.0526   22.6159 N   0  0  0  0  0  0  0  0  0  0  0  0
  -12.7350  -22.5973   23.8504 C   0  0  0  0  0  0  0  0  0  0  0  0
  -11.4674  -23.0549   24.0200 C   0  0  0  0  0  0  0  0  0  0  0  0
  -10.7172  -22.4437   23.0293 N   0  0  0  0  0  0  0  0  0  0  0  0
  -10.4150  -24.4727   14.4895 C   0  0  0  0  0  0  0  0  0  0  0  0
  -11.5038  -24.6951   13.3770 C   0  0  0  0  0  0  0  0  0  0  0  0
  -11.2508  -26.1606   13.0386 C   0  0  0  0  0  0  0  0  0  0  0  0
  -10.8645  -26.9623   14.2521 N   0  0  0  0  0  0  0  0  0  0  0  0
  -10.8005  -28.3540   13.9277 C   0  0  0  0  0  0  0  0  0  0  0  0
   -9.8803  -29.0249   13.5419 O   0  0  0  0  0  0  0  0  0  0  0  0
  -12.1692  -29.0068   14.2355 C   0  0  0  0  0  0  0  0  0  0  0  0
  -13.1587  -28.1338   14.7647 O   0  0  0  0  0  0  0  0  0  0  0  0
   -9.7813  -25.9175   14.3217 C   0  0  0  0  0  0  0  0  0  0  0  0
   -9.1108  -24.2893   12.6961 H   0  0  0  0  0  0  0  0  0  0  0  0
  -10.2302  -22.8050   12.8701 H   0  0  0  0  0  0  0  0  0  0  0  0
   -8.6330  -22.6488   12.8156 H   0  0  0  0  0  0  0  0  0  0  0  0
   -9.3966  -20.1394   17.5660 H   0  0  0  0  0  0  0  0  0  0  0  0
   -8.0623  -20.9448   17.6577 H   0  0  0  0  0  0  0  0  0  0  0  0
  -11.5918  -20.5976   20.6456 H   0  0  0  0  0  0  0  0  0  0  0  0
  -11.9898  -22.2344   20.0547 H   0  0  0  0  0  0  0  0  0  0  0  0
  -13.6051  -22.7592   24.4696 H   0  0  0  0  0  0  0  0  0  0  0  0
  -11.0314  -23.7071   24.7648 H   0  0  0  0  0  0  0  0  0  0  0  0
   -9.7417  -22.6191   22.8335 H   0  0  0  0  0  0  0  0  0  0  0  0
  -10.9299  -24.7192   15.4021 H   0  0  0  0  0  0  0  0  0  0  0  0
  -11.4963  -24.1084   12.4567 H   0  0  0  0  0  0  0  0  0  0  0  0
  -12.5242  -24.6177   13.7680 H   0  0  0  0  0  0  0  0  0  0  0  0
  -12.1922  -26.5891   12.6656 H   0  0  0  0  0  0  0  0  0  0  0  0
  -10.5534  -26.3120   12.1959 H   0  0  0  0  0  0  0  0  0  0  0  0
  -12.5582  -29.4413   13.3103 H   0  0  0  0  0  0  0  0  0  0  0  0
  -12.0026  -29.8046   14.9661 H   0  0  0  0  0  0  0  0  0  0  0  0
  -12.6591  -27.4922   15.3039 H   0  0  0  0  0  0  0  0  0  0  0  0
   -9.0370  -26.0805   13.5303 H   0  0  0  0  0  0  0  0  0  0  0  0
   -9.2398  -26.1820   15.2348 H   0  0  0  0  0  0  0  0  0  0  0  0
  1  2  1  0
  2  3  1  0
  3  4  2  0
  3  5  1  0
  5  6  1  0
  6  7  1  0
  7  8  1  0
  8  9  2  0
  9 10  1  0
 10 11  2  0
 11 12  1  0
  2 13  1  0
 13 14  1  0
 14 15  1  0
 15 16  1  0
 16 17  1  0
 17 18  2  0
 17 19  1  0
 19 20  1  0
 16 21  1  0
 12  8  1  0
 21 13  1  0
  1 22  1  0
  1 23  1  0
  1 24  1  0
  5 25  1  0
  5 26  1  0
  7 27  1  0
  7 28  1  0
 10 29  1  0
 11 30  1  0
 12 31  1  0
 13 32  1  0
 14 33  1  0
 14 34  1  0
 15 35  1  0
 15 36  1  0
 19 37  1  0
 19 38  1  0
 20 39  1  0
 21 40  1  0
 21 41  1  0
M  END
>  <Energy>  (253) 
535.29830937959002

>  <compound_id>  (253) 
18095

>  <target_id>  (253) 
1

>  <reference_id>  (253) 
64

>  <inspiration_ids>  (253) 
[30, 64]

>  <energy_score>  (253) 
424.045491795251

>  <distance_score>  (253) 
4.212334978516391

>  <path>  (253) 
/opt/xchem-fragalysis-2/maxwin/BulkDock/SCRATCH/511023/C18095-P64/C18095-P64.minimised.mol

>  <scratch_subdir>  (253) 
/opt/xchem-fragalysis-2/maxwin/BulkDock/SCRATCH/511023/C18095-P64

>  <fragmenstein_runtime>  (253) 
9.028916835784912

>  <fragmenstein_outcome>  (253) 
too moved

>  <fragmenstein_mode>  (253) 
expansion

>  <fragmenstein_error>  (253) 


$$$$
C14599-P30
     RDKit          3D

 39 41  0  0  0  0  0  0  0  0999 V2000
  -12.3681  -30.2360   19.0035 O   0  0  0  0  0  0  0  0  0  0  0  0
  -12.1186  -29.0724   18.8491 C   0  0  0  0  0  0  0  0  0  0  0  0
  -11.5991  -27.9228   20.0363 C   0  0  0  0  0  0  0  0  0  0  0  0
  -10.5838  -27.6256   21.8351 O   0  0  0  0  0  0  0  0  0  0  0  0
  -10.9081  -27.3384   23.8851 C   0  0  0  0  0  0  0  0  0  0  0  0
  -10.9261  -26.1268   25.4056 C   0  0  0  0  0  0  0  0  0  0  0  0
  -11.0552  -26.9527   26.6783 C   0  0  0  0  0  0  0  0  0  0  0  0
  -12.4348  -27.2441   26.4834 N   0  0  0  0  0  0  0  0  0  0  0  0
  -12.3446  -27.8225   25.1326 C   0  0  0  0  0  0  0  0  0  0  0  0
  -12.1043  -28.2471   17.6228 N   0  0  0  0  0  0  0  0  0  0  0  0
  -13.4686  -27.6156   17.3942 C   0  0  0  0  0  0  0  0  0  0  0  0
  -13.4501  -26.6909   16.1827 C   0  0  0  0  0  0  0  0  0  0  0  0
  -12.2750  -27.2820   15.4704 C   0  0  0  0  0  0  0  0  0  0  0  0
  -12.3277  -27.2323   13.9983 C   0  0  0  0  0  0  0  0  0  0  0  0
  -13.3288  -27.5568   13.2115 N   0  0  0  0  0  0  0  0  0  0  0  0
  -12.9340  -27.1994   11.9464 C   0  0  0  0  0  0  0  0  0  0  0  0
  -11.6712  -26.6600   11.9596 C   0  0  0  0  0  0  0  0  0  0  0  0
  -11.2848  -26.7076   13.2666 N   0  0  0  0  0  0  0  0  0  0  0  0
  -12.2886  -28.6318   16.1744 C   0  0  0  0  0  0  0  0  0  0  0  0
  -12.7651  -27.7529   20.0491 H   0  0  0  0  0  0  0  0  0  0  0  0
  -11.3158  -27.0152   19.2807 H   0  0  0  0  0  0  0  0  0  0  0  0
   -9.9643  -27.6916   24.4542 H   0  0  0  0  0  0  0  0  0  0  0  0
  -10.1084  -25.4057   25.5429 H   0  0  0  0  0  0  0  0  0  0  0  0
  -11.8264  -25.5147   25.5055 H   0  0  0  0  0  0  0  0  0  0  0  0
  -10.8303  -26.3651   27.5539 H   0  0  0  0  0  0  0  0  0  0  0  0
  -10.4947  -27.8868   26.7387 H   0  0  0  0  0  0  0  0  0  0  0  0
  -12.7665  -27.9530   27.1580 H   0  0  0  0  0  0  0  0  0  0  0  0
  -13.3794  -27.6889   24.7700 H   0  0  0  0  0  0  0  0  0  0  0  0
  -12.2073  -28.7798   25.5032 H   0  0  0  0  0  0  0  0  0  0  0  0
  -13.7024  -27.0091   18.2782 H   0  0  0  0  0  0  0  0  0  0  0  0
  -14.2704  -28.3733   17.3739 H   0  0  0  0  0  0  0  0  0  0  0  0
  -14.3993  -26.7405   15.6393 H   0  0  0  0  0  0  0  0  0  0  0  0
  -13.2695  -25.6507   16.4671 H   0  0  0  0  0  0  0  0  0  0  0  0
  -11.3723  -26.7370   15.7910 H   0  0  0  0  0  0  0  0  0  0  0  0
  -13.5824  -27.3488   11.0922 H   0  0  0  0  0  0  0  0  0  0  0  0
  -11.0358  -26.2703   11.1771 H   0  0  0  0  0  0  0  0  0  0  0  0
  -10.4069  -26.3718   13.6417 H   0  0  0  0  0  0  0  0  0  0  0  0
  -11.3917  -29.1917   15.8873 H   0  0  0  0  0  0  0  0  0  0  0  0
  -13.1221  -29.3242   15.9708 H   0  0  0  0  0  0  0  0  0  0  0  0
  1  2  2  0
  2  3  1  0
  3  4  1  0
  4  5  1  0
  5  6  1  0
  6  7  1  0
  7  8  1  0
  8  9  1  0
  2 10  1  0
 10 11  1  0
 11 12  1  0
 12 13  1  0
 13 14  1  0
 14 15  2  0
 15 16  1  0
 16 17  2  0
 17 18  1  0
 13 19  1  0
  9  5  1  0
 19 10  1  0
 18 14  1  0
  3 20  1  0
  3 21  1  0
  5 22  1  0
  6 23  1  0
  6 24  1  0
  7 25  1  0
  7 26  1  0
  8 27  1  0
  9 28  1  0
  9 29  1  0
 11 30  1  0
 11 31  1  0
 12 32  1  0
 12 33  1  0
 13 34  1  0
 16 35  1  0
 17 36  1  0
 18 37  1  0
 19 38  1  0
 19 39  1  0
M  END
>  <Energy>  (254) 
715.58630640919773

>  <compound_id>  (254) 
14599

>  <target_id>  (254) 
1

>  <reference_id>  (254) 
30

>  <inspiration_ids>  (254) 
[30, 64]

>  <energy_score>  (254) 
631.0345859542479

>  <distance_score>  (254) 
4.3294788677829175

>  <path>  (254) 
/opt/xchem-fragalysis-2/maxwin/BulkDock/SCRATCH/511023/C14599-P30/C14599-P30.minimised.mol

>  <scratch_subdir>  (254) 
/opt/xchem-fragalysis-2/maxwin/BulkDock/SCRATCH/511023/C14599-P30

>  <fragmenstein_runtime>  (254) 
10.724622964859009

>  <fragmenstein_outcome>  (254) 
too moved

>  <fragmenstein_mode>  (254) 
expansion

>  <fragmenstein_error>  (254) 


$$$$
C14599-P64
     RDKit          3D

 39 41  0  0  0  0  0  0  0  0999 V2000
  -12.3716  -32.7071   16.0738 O   0  0  0  0  0  0  0  0  0  0  0  0
  -12.7150  -31.8199   16.8149 C   0  0  0  0  0  0  0  0  0  0  0  0
  -13.1646  -32.1967   18.2626 C   0  0  0  0  0  0  0  0  0  0  0  0
  -12.0246  -32.2679   19.1313 O   0  0  0  0  0  0  0  0  0  0  0  0
  -12.2784  -32.0719   20.5253 C   0  0  0  0  0  0  0  0  0  0  0  0
  -10.9510  -31.8643   21.2555 C   0  0  0  0  0  0  0  0  0  0  0  0
  -11.1876  -32.4357   22.6396 C   0  0  0  0  0  0  0  0  0  0  0  0
  -12.0054  -33.6118   22.3636 N   0  0  0  0  0  0  0  0  0  0  0  0
  -12.9039  -33.2643   21.2578 C   0  0  0  0  0  0  0  0  0  0  0  0
  -12.7000  -30.3911   16.6326 N   0  0  0  0  0  0  0  0  0  0  0  0
  -14.0153  -29.9190   16.0394 C   0  0  0  0  0  0  0  0  0  0  0  0
  -14.0595  -28.4070   15.7872 C   0  0  0  0  0  0  0  0  0  0  0  0
  -12.5953  -28.1150   15.6902 C   0  0  0  0  0  0  0  0  0  0  0  0
  -12.1623  -27.1814   14.6158 C   0  0  0  0  0  0  0  0  0  0  0  0
  -12.8551  -26.7765   13.5713 N   0  0  0  0  0  0  0  0  0  0  0  0
  -12.0603  -25.8672   12.9185 C   0  0  0  0  0  0  0  0  0  0  0  0
  -10.8606  -25.7185   13.5667 C   0  0  0  0  0  0  0  0  0  0  0  0
  -10.9277  -26.5678   14.6360 N   0  0  0  0  0  0  0  0  0  0  0  0
  -12.1516  -29.5491   15.5114 C   0  0  0  0  0  0  0  0  0  0  0  0
  -13.6451  -33.1803   18.2276 H   0  0  0  0  0  0  0  0  0  0  0  0
  -13.9004  -31.4831   18.6267 H   0  0  0  0  0  0  0  0  0  0  0  0
  -12.9231  -31.2063   20.6590 H   0  0  0  0  0  0  0  0  0  0  0  0
  -10.1515  -32.4205   20.7478 H   0  0  0  0  0  0  0  0  0  0  0  0
  -10.6400  -30.8171   21.2654 H   0  0  0  0  0  0  0  0  0  0  0  0
  -10.2513  -32.7048   23.1363 H   0  0  0  0  0  0  0  0  0  0  0  0
  -11.7448  -31.7641   23.2920 H   0  0  0  0  0  0  0  0  0  0  0  0
  -12.5088  -33.9297   23.1878 H   0  0  0  0  0  0  0  0  0  0  0  0
  -13.8822  -32.9759   21.6596 H   0  0  0  0  0  0  0  0  0  0  0  0
  -13.0473  -34.1279   20.6017 H   0  0  0  0  0  0  0  0  0  0  0  0
  -14.8027  -30.1840   16.7575 H   0  0  0  0  0  0  0  0  0  0  0  0
  -14.2689  -30.5058   15.1393 H   0  0  0  0  0  0  0  0  0  0  0  0
  -14.6418  -28.1877   14.8863 H   0  0  0  0  0  0  0  0  0  0  0  0
  -14.5197  -27.8671   16.6193 H   0  0  0  0  0  0  0  0  0  0  0  0
  -12.2419  -27.7327   16.6575 H   0  0  0  0  0  0  0  0  0  0  0  0
  -12.3973  -25.3656   12.0205 H   0  0  0  0  0  0  0  0  0  0  0  0
   -9.9951  -25.1000   13.3721 H   0  0  0  0  0  0  0  0  0  0  0  0
  -10.2051  -26.6909   15.3333 H   0  0  0  0  0  0  0  0  0  0  0  0
  -11.0610  -29.6076   15.6200 H   0  0  0  0  0  0  0  0  0  0  0  0
  -12.3265  -29.9954   14.5162 H   0  0  0  0  0  0  0  0  0  0  0  0
  1  2  2  0
  2  3  1  0
  3  4  1  0
  4  5  1  0
  5  6  1  0
  6  7  1  0
  7  8  1  0
  8  9  1  0
  2 10  1  0
 10 11  1  0
 11 12  1  0
 12 13  1  0
 13 14  1  0
 14 15  2  0
 15 16  1  0
 16 17  2  0
 17 18  1  0
 13 19  1  0
  9  5  1  0
 19 10  1  0
 18 14  1  0
  3 20  1  0
  3 21  1  0
  5 22  1  0
  6 23  1  0
  6 24  1  0
  7 25  1  0
  7 26  1  0
  8 27  1  0
  9 28  1  0
  9 29  1  0
 11 30  1  0
 11 31  1  0
 12 32  1  0
 12 33  1  0
 13 34  1  0
 16 35  1  0
 17 36  1  0
 18 37  1  0
 19 38  1  0
 19 39  1  0
M  END
>  <Energy>  (255) 
122.07451374464328

>  <compound_id>  (255) 
14599

>  <target_id>  (255) 
1

>  <reference_id>  (255) 
64

>  <inspiration_ids>  (255) 
[30, 64]

>  <energy_score>  (255) 
37.5227932896868

>  <distance_score>  (255) 
6.758678977542944

>  <path>  (255) 
/opt/xchem-fragalysis-2/maxwin/BulkDock/SCRATCH/511023/C14599-P64/C14599-P64.minimised.mol

>  <scratch_subdir>  (255) 
/opt/xchem-fragalysis-2/maxwin/BulkDock/SCRATCH/511023/C14599-P64

>  <fragmenstein_runtime>  (255) 
8.79310131072998

>  <fragmenstein_outcome>  (255) 
too moved

>  <fragmenstein_mode>  (255) 
expansion

>  <fragmenstein_error>  (255) 


$$$$
C14616-P30
     RDKit          3D

 39 41  0  0  0  0  0  0  0  0999 V2000
  -13.4467  -29.4258   18.8920 O   0  0  0  0  0  0  0  0  0  0  0  0
  -12.7803  -28.4338   18.7805 C   0  0  0  0  0  0  0  0  0  0  0  0
  -11.5953  -27.9386   20.0193 C   0  0  0  0  0  0  0  0  0  0  0  0
  -10.5632  -27.6638   21.7885 O   0  0  0  0  0  0  0  0  0  0  0  0
  -10.7896  -27.2717   23.8179 C   0  0  0  0  0  0  0  0  0  0  0  0
  -11.1788  -25.9453   25.1847 C   0  0  0  0  0  0  0  0  0  0  0  0
  -11.1274  -26.0064   26.6516 C   0  0  0  0  0  0  0  0  0  0  0  0
  -11.3974  -27.3566   26.8001 N   0  0  0  0  0  0  0  0  0  0  0  0
  -10.9246  -27.9540   25.5523 C   0  0  0  0  0  0  0  0  0  0  0  0
  -12.6663  -27.4984   17.6805 N   0  0  0  0  0  0  0  0  0  0  0  0
  -13.6744  -26.3732   17.8411 C   0  0  0  0  0  0  0  0  0  0  0  0
  -15.0813  -26.7569   17.4562 C   0  0  0  0  0  0  0  0  0  0  0  0
  -14.7793  -27.4916   16.2041 C   0  0  0  0  0  0  0  0  0  0  0  0
  -13.2626  -27.5347   16.2819 C   0  0  0  0  0  0  0  0  0  0  0  0
  -12.5117  -26.6388   15.3048 C   0  0  0  0  0  0  0  0  0  0  0  0
  -13.0256  -25.9037   14.3359 N   0  0  0  0  0  0  0  0  0  0  0  0
  -11.9625  -25.3272   13.6901 C   0  0  0  0  0  0  0  0  0  0  0  0
  -10.7816  -25.6907   14.2864 C   0  0  0  0  0  0  0  0  0  0  0  0
  -11.1389  -26.5233   15.3104 N   0  0  0  0  0  0  0  0  0  0  0  0
  -11.3036  -29.1110   19.7536 H   0  0  0  0  0  0  0  0  0  0  0  0
  -11.2651  -27.0342   19.2985 H   0  0  0  0  0  0  0  0  0  0  0  0
  -11.6755  -27.7815   23.9707 H   0  0  0  0  0  0  0  0  0  0  0  0
  -12.2969  -25.8696   25.1739 H   0  0  0  0  0  0  0  0  0  0  0  0
  -10.5545  -25.0293   25.1432 H   0  0  0  0  0  0  0  0  0  0  0  0
  -11.9421  -25.3405   26.9355 H   0  0  0  0  0  0  0  0  0  0  0  0
  -10.2420  -25.5987   27.1076 H   0  0  0  0  0  0  0  0  0  0  0  0
  -10.9766  -27.7703   27.6312 H   0  0  0  0  0  0  0  0  0  0  0  0
  -10.0335  -28.4239   25.8671 H   0  0  0  0  0  0  0  0  0  0  0  0
  -11.8890  -28.4694   25.5298 H   0  0  0  0  0  0  0  0  0  0  0  0
  -13.3498  -25.4670   17.3137 H   0  0  0  0  0  0  0  0  0  0  0  0
  -13.6803  -26.0896   18.9014 H   0  0  0  0  0  0  0  0  0  0  0  0
  -15.5401  -27.4123   18.2043 H   0  0  0  0  0  0  0  0  0  0  0  0
  -15.7275  -25.8870   17.3098 H   0  0  0  0  0  0  0  0  0  0  0  0
  -15.1688  -26.9957   15.3102 H   0  0  0  0  0  0  0  0  0  0  0  0
  -15.2123  -28.4978   16.2452 H   0  0  0  0  0  0  0  0  0  0  0  0
  -12.9952  -28.5476   15.9397 H   0  0  0  0  0  0  0  0  0  0  0  0
  -12.1050  -24.6699   12.8418 H   0  0  0  0  0  0  0  0  0  0  0  0
   -9.7517  -25.4356   14.0832 H   0  0  0  0  0  0  0  0  0  0  0  0
  -10.5127  -26.9716   15.9666 H   0  0  0  0  0  0  0  0  0  0  0  0
  1  2  2  0
  2  3  1  0
  3  4  1  0
  4  5  1  0
  5  6  1  0
  6  7  1  0
  7  8  1  0
  8  9  1  0
  2 10  1  0
 10 11  1  0
 11 12  1  0
 12 13  1  0
 13 14  1  0
 14 15  1  0
 15 16  2  0
 16 17  1  0
 17 18  2  0
 18 19  1  0
  9  5  1  0
 14 10  1  0
 19 15  1  0
  3 20  1  0
  3 21  1  0
  5 22  1  0
  6 23  1  0
  6 24  1  0
  7 25  1  0
  7 26  1  0
  8 27  1  0
  9 28  1  0
  9 29  1  0
 11 30  1  0
 11 31  1  0
 12 32  1  0
 12 33  1  0
 13 34  1  0
 13 35  1  0
 14 36  1  0
 17 37  1  0
 18 38  1  0
 19 39  1  0
M  END
>  <Energy>  (256) 
776.24685663796902

>  <compound_id>  (256) 
14616

>  <target_id>  (256) 
1

>  <reference_id>  (256) 
30

>  <inspiration_ids>  (256) 
[30, 64]

>  <energy_score>  (256) 
680.8308469110647

>  <distance_score>  (256) 
4.151648704429725

>  <path>  (256) 
/opt/xchem-fragalysis-2/maxwin/BulkDock/SCRATCH/511023/C14616-P30/C14616-P30.minimised.mol

>  <scratch_subdir>  (256) 
/opt/xchem-fragalysis-2/maxwin/BulkDock/SCRATCH/511023/C14616-P30

>  <fragmenstein_runtime>  (256) 
14.162506103515625

>  <fragmenstein_outcome>  (256) 
too moved

>  <fragmenstein_mode>  (256) 
expansion

>  <fragmenstein_error>  (256) 


$$$$
C14616-P64
     RDKit          3D

 39 41  0  0  0  0  0  0  0  0999 V2000
  -12.3222  -28.8868   17.4313 O   0  0  0  0  0  0  0  0  0  0  0  0
  -12.7232  -29.7600   16.7074 C   0  0  0  0  0  0  0  0  0  0  0  0
  -13.1756  -31.1107   17.3968 C   0  0  0  0  0  0  0  0  0  0  0  0
  -12.6462  -31.0876   18.7386 O   0  0  0  0  0  0  0  0  0  0  0  0
  -12.7353  -32.2331   19.5702 C   0  0  0  0  0  0  0  0  0  0  0  0
  -11.6853  -32.0986   20.6844 C   0  0  0  0  0  0  0  0  0  0  0  0
  -12.3657  -32.6103   21.9374 C   0  0  0  0  0  0  0  0  0  0  0  0
  -13.7600  -32.2073   21.7715 N   0  0  0  0  0  0  0  0  0  0  0  0
  -14.0567  -32.3679   20.3390 C   0  0  0  0  0  0  0  0  0  0  0  0
  -12.7778  -29.8269   15.2919 N   0  0  0  0  0  0  0  0  0  0  0  0
  -11.5134  -30.4444   14.7423 C   0  0  0  0  0  0  0  0  0  0  0  0
  -11.6250  -30.6232   13.2326 C   0  0  0  0  0  0  0  0  0  0  0  0
  -12.4320  -29.4195   12.8695 C   0  0  0  0  0  0  0  0  0  0  0  0
  -12.4531  -28.7789   14.2315 C   0  0  0  0  0  0  0  0  0  0  0  0
  -13.3764  -27.5928   14.3280 C   0  0  0  0  0  0  0  0  0  0  0  0
  -14.0601  -27.0192   13.3563 N   0  0  0  0  0  0  0  0  0  0  0  0
  -14.5823  -25.8708   13.8943 C   0  0  0  0  0  0  0  0  0  0  0  0
  -14.1955  -25.7254   15.2039 C   0  0  0  0  0  0  0  0  0  0  0  0
  -13.4399  -26.8304   15.4760 N   0  0  0  0  0  0  0  0  0  0  0  0
  -14.2675  -31.1574   17.4225 H   0  0  0  0  0  0  0  0  0  0  0  0
  -12.7674  -31.9712   16.8621 H   0  0  0  0  0  0  0  0  0  0  0  0
  -12.5353  -33.1358   18.9807 H   0  0  0  0  0  0  0  0  0  0  0  0
  -11.3543  -31.0645   20.8093 H   0  0  0  0  0  0  0  0  0  0  0  0
  -10.7918  -32.6878   20.4505 H   0  0  0  0  0  0  0  0  0  0  0  0
  -11.9258  -32.2000   22.8499 H   0  0  0  0  0  0  0  0  0  0  0  0
  -12.2968  -33.7035   21.9868 H   0  0  0  0  0  0  0  0  0  0  0  0
  -14.3693  -32.8007   22.3324 H   0  0  0  0  0  0  0  0  0  0  0  0
  -14.4592  -33.3754   20.1785 H   0  0  0  0  0  0  0  0  0  0  0  0
  -14.8153  -31.6532   20.0129 H   0  0  0  0  0  0  0  0  0  0  0  0
  -11.4154  -31.4414   15.1911 H   0  0  0  0  0  0  0  0  0  0  0  0
  -10.6016  -29.9211   15.0776 H   0  0  0  0  0  0  0  0  0  0  0  0
  -10.6406  -30.6483   12.7564 H   0  0  0  0  0  0  0  0  0  0  0  0
  -12.1597  -31.5434   12.9742 H   0  0  0  0  0  0  0  0  0  0  0  0
  -13.4320  -29.7014   12.5205 H   0  0  0  0  0  0  0  0  0  0  0  0
  -11.9571  -28.7952   12.1066 H   0  0  0  0  0  0  0  0  0  0  0  0
  -11.4844  -28.2865   14.4561 H   0  0  0  0  0  0  0  0  0  0  0  0
  -15.1981  -25.2035   13.3053 H   0  0  0  0  0  0  0  0  0  0  0  0
  -14.3908  -24.9631   15.9446 H   0  0  0  0  0  0  0  0  0  0  0  0
  -12.9862  -27.0610   16.3550 H   0  0  0  0  0  0  0  0  0  0  0  0
  1  2  2  0
  2  3  1  0
  3  4  1  0
  4  5  1  0
  5  6  1  0
  6  7  1  0
  7  8  1  0
  8  9  1  0
  2 10  1  0
 10 11  1  0
 11 12  1  0
 12 13  1  0
 13 14  1  0
 14 15  1  0
 15 16  2  0
 16 17  1  0
 17 18  2  0
 18 19  1  0
  9  5  1  0
 14 10  1  0
 19 15  1  0
  3 20  1  0
  3 21  1  0
  5 22  1  0
  6 23  1  0
  6 24  1  0
  7 25  1  0
  7 26  1  0
  8 27  1  0
  9 28  1  0
  9 29  1  0
 11 30  1  0
 11 31  1  0
 12 32  1  0
 12 33  1  0
 13 34  1  0
 13 35  1  0
 14 36  1  0
 17 37  1  0
 18 38  1  0
 19 39  1  0
M  END
>  <Energy>  (257) 
120.51680103820362

>  <compound_id>  (257) 
14616

>  <target_id>  (257) 
1

>  <reference_id>  (257) 
64

>  <inspiration_ids>  (257) 
[30, 64]

>  <energy_score>  (257) 
25.100791311279835

>  <distance_score>  (257) 
6.969650414900158

>  <path>  (257) 
/opt/xchem-fragalysis-2/maxwin/BulkDock/SCRATCH/511023/C14616-P64/C14616-P64.minimised.mol

>  <scratch_subdir>  (257) 
/opt/xchem-fragalysis-2/maxwin/BulkDock/SCRATCH/511023/C14616-P64

>  <fragmenstein_runtime>  (257) 
6.807292699813843

>  <fragmenstein_outcome>  (257) 
too moved

>  <fragmenstein_mode>  (257) 
expansion

>  <fragmenstein_error>  (257) 


$$$$
C8989-P114
     RDKit          3D

 35 36  0  0  0  0  0  0  0  0999 V2000
   -0.6050   -8.8887   29.2674 C   0  0  0  0  0  0  0  0  0  0  0  0
   -1.9454   -8.1839   29.0888 C   0  0  0  0  0  0  0  0  0  0  0  0
   -2.0161   -7.5092   27.6811 C   0  0  0  0  0  0  0  0  0  0  0  0
   -1.1063   -6.4487   27.2369 N   0  0  0  0  0  0  0  0  0  0  0  0
   -1.1963   -5.5294   26.1246 C   0  0  0  0  0  0  0  0  0  0  0  0
   -2.0752   -5.3491   25.3314 O   0  0  0  0  0  0  0  0  0  0  0  0
    0.0427   -4.6845   25.9294 C   0  0  0  0  0  0  0  0  0  0  0  0
    0.2189   -3.8666   24.8110 C   0  0  0  0  0  0  0  0  0  0  0  0
    1.6565   -2.9411   24.9219 S   0  0  0  0  0  0  0  0  0  0  0  0
    2.0299   -3.7780   26.3709 C   0  0  0  0  0  0  0  0  0  0  0  0
    1.1268   -4.6325   26.8199 N   0  0  0  0  0  0  0  0  0  0  0  0
   -3.1068   -9.1198   29.2599 N   0  0  0  0  0  0  0  0  0  0  0  0
   -3.3277  -10.2194   30.2144 C   0  0  0  0  0  0  0  0  0  0  0  0
   -2.5996  -10.6928   31.0426 O   0  0  0  0  0  0  0  0  0  0  0  0
   -4.7818  -10.7602   30.0450 C   0  0  0  0  0  0  0  0  0  0  0  0
   -5.1172  -12.1417   30.5861 C   0  0  0  0  0  0  0  0  0  0  0  0
   -6.3054  -12.7262   30.4823 N   0  0  0  0  0  0  0  0  0  0  0  0
   -6.1961  -13.9443   31.1054 C   0  0  0  0  0  0  0  0  0  0  0  0
   -4.9215  -14.1271   31.5772 C   0  0  0  0  0  0  0  0  0  0  0  0
   -4.2425  -12.9855   31.2340 N   0  0  0  0  0  0  0  0  0  0  0  0
   -0.5214   -9.3393   30.2607 H   0  0  0  0  0  0  0  0  0  0  0  0
   -0.4729   -9.6817   28.5260 H   0  0  0  0  0  0  0  0  0  0  0  0
    0.2257   -8.1840   29.1579 H   0  0  0  0  0  0  0  0  0  0  0  0
   -2.0558   -7.4177   29.8638 H   0  0  0  0  0  0  0  0  0  0  0  0
   -3.0245   -7.0965   27.5489 H   0  0  0  0  0  0  0  0  0  0  0  0
   -1.9237   -8.2964   26.9254 H   0  0  0  0  0  0  0  0  0  0  0  0
   -0.1762   -6.3850   27.6442 H   0  0  0  0  0  0  0  0  0  0  0  0
   -0.4567   -3.7431   23.9762 H   0  0  0  0  0  0  0  0  0  0  0  0
    2.9533   -3.5877   26.9019 H   0  0  0  0  0  0  0  0  0  0  0  0
   -3.9722   -8.9310   28.7641 H   0  0  0  0  0  0  0  0  0  0  0  0
   -5.0319  -10.7765   28.9805 H   0  0  0  0  0  0  0  0  0  0  0  0
   -5.4459  -10.0365   30.5330 H   0  0  0  0  0  0  0  0  0  0  0  0
   -7.0369  -14.6156   31.1862 H   0  0  0  0  0  0  0  0  0  0  0  0
   -4.4469  -14.9385   32.1093 H   0  0  0  0  0  0  0  0  0  0  0  0
   -3.2698  -12.7694   31.4278 H   0  0  0  0  0  0  0  0  0  0  0  0
  1  2  1  0
  2  3  1  0
  3  4  1  0
  4  5  1  0
  5  6  2  0
  5  7  1  0
  7  8  2  0
  8  9  1  0
  9 10  1  0
 10 11  2  0
  2 12  1  0
 12 13  1  0
 13 14  2  0
 13 15  1  0
 15 16  1  0
 16 17  2  0
 17 18  1  0
 18 19  2  0
 19 20  1  0
 11  7  1  0
 20 16  1  0
  1 21  1  0
  1 22  1  0
  1 23  1  0
  2 24  1  0
  3 25  1  0
  3 26  1  0
  4 27  1  0
  8 28  1  0
 10 29  1  0
 12 30  1  0
 15 31  1  0
 15 32  1  0
 18 33  1  0
 19 34  1  0
 20 35  1  0
M  END
>  <Energy>  (258) 
40.529525246218377

>  <compound_id>  (258) 
8989

>  <target_id>  (258) 
1

>  <reference_id>  (258) 
114

>  <inspiration_ids>  (258) 
[114, 49]

>  <energy_score>  (258) 
-71.36678234754629

>  <distance_score>  (258) 
14.495149510758608

>  <path>  (258) 
/opt/xchem-fragalysis-2/maxwin/BulkDock/SCRATCH/511023/C8989-P114/C8989-P114.minimised.mol

>  <scratch_subdir>  (258) 
/opt/xchem-fragalysis-2/maxwin/BulkDock/SCRATCH/511023/C8989-P114

>  <fragmenstein_runtime>  (258) 
38.62786555290222

>  <fragmenstein_outcome>  (258) 
too moved

>  <fragmenstein_mode>  (258) 
expansion

>  <fragmenstein_error>  (258) 


$$$$
C8989-P49
     RDKit          3D

 35 36  0  0  0  0  0  0  0  0999 V2000
    2.2508  -11.6939   22.1254 C   0  0  0  0  0  0  0  0  0  0  0  0
    2.8651  -12.9261   21.4914 C   0  0  0  0  0  0  0  0  0  0  0  0
    2.8349  -11.7890   19.7552 C   0  0  0  0  0  0  0  0  0  0  0  0
    4.0249  -11.7404   18.4441 N   0  0  0  0  0  0  0  0  0  0  0  0
    5.2443  -10.9352   18.2702 C   0  0  0  0  0  0  0  0  0  0  0  0
    5.7841  -10.1633   19.0136 O   0  0  0  0  0  0  0  0  0  0  0  0
    5.8771  -10.9952   16.9177 C   0  0  0  0  0  0  0  0  0  0  0  0
    5.7727  -11.9815   15.9583 C   0  0  0  0  0  0  0  0  0  0  0  0
    6.6843  -11.5740   14.5576 S   0  0  0  0  0  0  0  0  0  0  0  0
    7.1698  -10.1196   15.3046 C   0  0  0  0  0  0  0  0  0  0  0  0
    6.6991   -9.9089   16.5102 N   0  0  0  0  0  0  0  0  0  0  0  0
    1.8301  -14.1243   22.0720 N   0  0  0  0  0  0  0  0  0  0  0  0
    2.1590  -15.7703   23.3168 C   0  0  0  0  0  0  0  0  0  0  0  0
    3.2026  -16.1605   23.7756 O   0  0  0  0  0  0  0  0  0  0  0  0
    0.5300  -16.9491   24.1154 C   0  0  0  0  0  0  0  0  0  0  0  0
   -0.9768  -16.7054   25.3993 C   0  0  0  0  0  0  0  0  0  0  0  0
   -2.1939  -17.1677   25.2162 N   0  0  0  0  0  0  0  0  0  0  0  0
   -2.5195  -18.0438   26.2853 C   0  0  0  0  0  0  0  0  0  0  0  0
   -1.6917  -17.7608   27.2958 C   0  0  0  0  0  0  0  0  0  0  0  0
   -0.8855  -16.8060   26.7088 N   0  0  0  0  0  0  0  0  0  0  0  0
    2.8923  -11.7405   22.9791 H   0  0  0  0  0  0  0  0  0  0  0  0
    1.2424  -11.6058   22.4994 H   0  0  0  0  0  0  0  0  0  0  0  0
    2.2062  -10.7926   21.5716 H   0  0  0  0  0  0  0  0  0  0  0  0
    2.6296  -13.4540   20.6421 H   0  0  0  0  0  0  0  0  0  0  0  0
    2.2786  -12.4133   19.1240 H   0  0  0  0  0  0  0  0  0  0  0  0
    2.9792  -10.7645   20.0560 H   0  0  0  0  0  0  0  0  0  0  0  0
    3.9089  -12.3434   17.6442 H   0  0  0  0  0  0  0  0  0  0  0  0
    5.2270  -12.9131   15.9936 H   0  0  0  0  0  0  0  0  0  0  0  0
    7.8272   -9.4340   14.7938 H   0  0  0  0  0  0  0  0  0  0  0  0
    0.9138  -13.9712   21.9088 H   0  0  0  0  0  0  0  0  0  0  0  0
    0.6443  -16.8346   25.2566 H   0  0  0  0  0  0  0  0  0  0  0  0
   -0.2267  -16.1316   24.3839 H   0  0  0  0  0  0  0  0  0  0  0  0
   -3.3360  -18.7529   26.2404 H   0  0  0  0  0  0  0  0  0  0  0  0
   -1.5959  -18.1038   28.3167 H   0  0  0  0  0  0  0  0  0  0  0  0
   -0.0923  -16.3253   27.0418 H   0  0  0  0  0  0  0  0  0  0  0  0
  1  2  1  0
  2  3  1  0
  3  4  1  0
  4  5  1  0
  5  6  2  0
  5  7  1  0
  7  8  2  0
  8  9  1  0
  9 10  1  0
 10 11  2  0
  2 12  1  0
 12 13  1  0
 13 14  2  0
 13 15  1  0
 15 16  1  0
 16 17  2  0
 17 18  1  0
 18 19  2  0
 19 20  1  0
 11  7  1  0
 20 16  1  0
  1 21  1  0
  1 22  1  0
  1 23  1  0
  2 24  1  0
  3 25  1  0
  3 26  1  0
  4 27  1  0
  8 28  1  0
 10 29  1  0
 12 30  1  0
 15 31  1  0
 15 32  1  0
 18 33  1  0
 19 34  1  0
 20 35  1  0
M  END
>  <Energy>  (259) 
802.3975510524732

>  <compound_id>  (259) 
8989

>  <target_id>  (259) 
1

>  <reference_id>  (259) 
49

>  <inspiration_ids>  (259) 
[114, 49]

>  <energy_score>  (259) 
690.5012434587131

>  <distance_score>  (259) 
12.233560793674636

>  <path>  (259) 
/opt/xchem-fragalysis-2/maxwin/BulkDock/SCRATCH/511023/C8989-P49/C8989-P49.minimised.mol

>  <scratch_subdir>  (259) 
/opt/xchem-fragalysis-2/maxwin/BulkDock/SCRATCH/511023/C8989-P49

>  <fragmenstein_runtime>  (259) 
16.88022017478943

>  <fragmenstein_outcome>  (259) 
too moved

>  <fragmenstein_mode>  (259) 
expansion

>  <fragmenstein_error>  (259) 


$$$$
C11943-P114
     RDKit          3D

 44 45  0  0  0  0  0  0  0  0999 V2000
   -0.3002  -17.8253   24.9612 C   0  0  0  0  0  0  0  0  0  0  0  0
   -1.0616  -16.7809   24.1607 C   0  0  0  0  0  0  0  0  0  0  0  0
   -1.4778  -17.3022   22.8324 C   0  0  0  0  0  0  0  0  0  0  0  0
   -2.6171  -17.9489   22.4107 C   0  0  0  0  0  0  0  0  0  0  0  0
   -2.5392  -18.2192   21.0669 N   0  0  0  0  0  0  0  0  0  0  0  0
   -1.3760  -17.7356   20.6485 C   0  0  0  0  0  0  0  0  0  0  0  0
   -0.7816  -17.9019   19.2693 C   0  0  0  0  0  0  0  0  0  0  0  0
   -0.1636  -16.6375   18.5849 C   0  0  0  0  0  0  0  0  0  0  0  0
   -0.8892  -15.8385   18.0614 O   0  0  0  0  0  0  0  0  0  0  0  0
    1.2891  -16.7098   18.6332 N   0  0  0  0  0  0  0  0  0  0  0  0
    2.3531  -15.8617   17.9570 C   0  0  0  0  0  0  0  0  0  0  0  0
    3.3727  -16.9206   17.5358 C   0  0  0  0  0  0  0  0  0  0  0  0
    3.0627  -14.4576   18.8648 C   0  0  0  0  0  0  0  0  0  0  0  0
    4.0683  -12.9304   18.5670 N   0  0  0  0  0  0  0  0  0  0  0  0
    5.5371  -12.3624   19.3242 C   0  0  0  0  0  0  0  0  0  0  0  0
    6.0928  -12.8619   20.2714 O   0  0  0  0  0  0  0  0  0  0  0  0
    6.6206  -10.9031   18.6121 C   0  0  0  0  0  0  0  0  0  0  0  0
    7.6765  -10.4675   19.2775 C   0  0  0  0  0  0  0  0  0  0  0  0
    8.9299   -9.5554   18.6206 C   0  0  0  0  0  0  0  0  0  0  0  0
    9.8559   -9.8923   17.6955 N   0  0  0  0  0  0  0  0  0  0  0  0
    9.2351  -10.5365   16.8136 C   0  0  0  0  0  0  0  0  0  0  0  0
    7.9117  -10.8981   17.2502 C   0  0  0  0  0  0  0  0  0  0  0  0
   -0.6824  -17.2086   21.7128 N   0  0  0  0  0  0  0  0  0  0  0  0
   -0.9155  -18.7140   25.1391 H   0  0  0  0  0  0  0  0  0  0  0  0
   -0.0048  -17.4169   25.9328 H   0  0  0  0  0  0  0  0  0  0  0  0
    0.6068  -18.1456   24.4375 H   0  0  0  0  0  0  0  0  0  0  0  0
   -0.4372  -15.8882   24.0350 H   0  0  0  0  0  0  0  0  0  0  0  0
   -1.9481  -16.4676   24.7246 H   0  0  0  0  0  0  0  0  0  0  0  0
   -3.4857  -18.2287   22.9924 H   0  0  0  0  0  0  0  0  0  0  0  0
   -1.5699  -18.2573   18.5924 H   0  0  0  0  0  0  0  0  0  0  0  0
   -0.0461  -18.7141   19.3054 H   0  0  0  0  0  0  0  0  0  0  0  0
    1.5612  -17.5662   19.0929 H   0  0  0  0  0  0  0  0  0  0  0  0
    1.8694  -15.4642   17.0560 H   0  0  0  0  0  0  0  0  0  0  0  0
    2.8885  -17.7982   17.0910 H   0  0  0  0  0  0  0  0  0  0  0  0
    4.0376  -16.5141   16.7690 H   0  0  0  0  0  0  0  0  0  0  0  0
    3.9829  -17.2643   18.3756 H   0  0  0  0  0  0  0  0  0  0  0  0
    2.1626  -14.0333   18.4330 H   0  0  0  0  0  0  0  0  0  0  0  0
    3.9591  -14.8561   18.3645 H   0  0  0  0  0  0  0  0  0  0  0  0
    3.7833  -12.2663   17.8472 H   0  0  0  0  0  0  0  0  0  0  0  0
    8.0378  -11.4050   19.7134 H   0  0  0  0  0  0  0  0  0  0  0  0
    9.4101   -8.8543   19.3384 H   0  0  0  0  0  0  0  0  0  0  0  0
    9.7285  -10.9011   15.9240 H   0  0  0  0  0  0  0  0  0  0  0  0
    8.1088  -11.8458   16.6985 H   0  0  0  0  0  0  0  0  0  0  0  0
    0.2668  -16.8417   21.6971 H   0  0  0  0  0  0  0  0  0  0  0  0
  1  2  1  0
  2  3  1  0
  3  4  2  0
  4  5  1  0
  5  6  2  0
  6  7  1  0
  7  8  1  0
  8  9  2  0
  8 10  1  0
 10 11  1  0
 11 12  1  0
 11 13  1  0
 13 14  1  0
 14 15  1  0
 15 16  2  0
 15 17  1  0
 17 18  2  0
 18 19  1  0
 19 20  2  0
 20 21  1  0
 21 22  2  0
  6 23  1  0
 23  3  1  0
 22 17  1  0
  1 24  1  0
  1 25  1  0
  1 26  1  0
  2 27  1  0
  2 28  1  0
  4 29  1  0
  7 30  1  0
  7 31  1  0
 10 32  1  0
 11 33  1  0
 12 34  1  0
 12 35  1  0
 12 36  1  0
 13 37  1  0
 13 38  1  0
 14 39  1  0
 18 40  1  0
 19 41  1  0
 21 42  1  0
 22 43  1  0
 23 44  1  0
M  END
>  <Energy>  (260) 
493.85834816132189

>  <compound_id>  (260) 
11943

>  <target_id>  (260) 
1

>  <reference_id>  (260) 
114

>  <inspiration_ids>  (260) 
[114, 49]

>  <energy_score>  (260) 
453.49759671119364

>  <distance_score>  (260) 
14.441412189437091

>  <path>  (260) 
/opt/xchem-fragalysis-2/maxwin/BulkDock/SCRATCH/511023/C11943-P114/C11943-P114.minimised.mol

>  <scratch_subdir>  (260) 
/opt/xchem-fragalysis-2/maxwin/BulkDock/SCRATCH/511023/C11943-P114

>  <fragmenstein_runtime>  (260) 
35.99336361885071

>  <fragmenstein_outcome>  (260) 
too moved

>  <fragmenstein_mode>  (260) 
expansion

>  <fragmenstein_error>  (260) 


$$$$
C11943-P49
     RDKit          3D

 44 45  0  0  0  0  0  0  0  0999 V2000
   -3.6135  -21.9330   24.0828 C   0  0  0  0  0  0  0  0  0  0  0  0
   -2.5569  -20.8467   23.9657 C   0  0  0  0  0  0  0  0  0  0  0  0
   -3.1606  -19.5017   23.7666 C   0  0  0  0  0  0  0  0  0  0  0  0
   -3.7379  -18.6136   24.6462 C   0  0  0  0  0  0  0  0  0  0  0  0
   -4.1368  -17.4736   23.9888 N   0  0  0  0  0  0  0  0  0  0  0  0
   -3.8113  -17.6498   22.7185 C   0  0  0  0  0  0  0  0  0  0  0  0
   -3.9823  -16.6683   21.5832 C   0  0  0  0  0  0  0  0  0  0  0  0
   -3.2791  -15.2820   21.7232 C   0  0  0  0  0  0  0  0  0  0  0  0
   -3.2794  -14.5648   20.7617 O   0  0  0  0  0  0  0  0  0  0  0  0
   -2.8112  -15.0585   23.0494 N   0  0  0  0  0  0  0  0  0  0  0  0
   -2.2784  -13.8715   23.6842 C   0  0  0  0  0  0  0  0  0  0  0  0
   -2.3547  -14.1736   25.2089 C   0  0  0  0  0  0  0  0  0  0  0  0
   -0.9502  -12.9482   23.2073 C   0  0  0  0  0  0  0  0  0  0  0  0
    0.4574  -12.6925   22.0952 N   0  0  0  0  0  0  0  0  0  0  0  0
    1.4942  -11.2532   21.8255 C   0  0  0  0  0  0  0  0  0  0  0  0
    1.4107  -10.2743   22.4485 O   0  0  0  0  0  0  0  0  0  0  0  0
    2.7136  -11.0747   20.4217 C   0  0  0  0  0  0  0  0  0  0  0  0
    2.9496  -11.8963   19.1423 C   0  0  0  0  0  0  0  0  0  0  0  0
    3.6584  -11.8527   17.7994 C   0  0  0  0  0  0  0  0  0  0  0  0
    4.7286  -11.1290   17.7043 N   0  0  0  0  0  0  0  0  0  0  0  0
    4.6792  -10.2853   18.7202 C   0  0  0  0  0  0  0  0  0  0  0  0
    3.5719  -10.0060   19.9623 C   0  0  0  0  0  0  0  0  0  0  0  0
   -3.2330  -18.8847   22.5416 N   0  0  0  0  0  0  0  0  0  0  0  0
   -4.2545  -21.7681   24.9552 H   0  0  0  0  0  0  0  0  0  0  0  0
   -4.2532  -21.9643   23.1943 H   0  0  0  0  0  0  0  0  0  0  0  0
   -3.1384  -22.9126   24.1947 H   0  0  0  0  0  0  0  0  0  0  0  0
   -1.9425  -20.8385   24.8737 H   0  0  0  0  0  0  0  0  0  0  0  0
   -1.8846  -21.0841   23.1326 H   0  0  0  0  0  0  0  0  0  0  0  0
   -3.8815  -18.7304   25.7128 H   0  0  0  0  0  0  0  0  0  0  0  0
   -5.0541  -16.4708   21.4632 H   0  0  0  0  0  0  0  0  0  0  0  0
   -3.6148  -17.1191   20.6533 H   0  0  0  0  0  0  0  0  0  0  0  0
   -3.0514  -15.8657   23.6264 H   0  0  0  0  0  0  0  0  0  0  0  0
   -3.1011  -13.1489   23.5495 H   0  0  0  0  0  0  0  0  0  0  0  0
   -1.7734  -15.0600   25.4833 H   0  0  0  0  0  0  0  0  0  0  0  0
   -2.0028  -13.3202   25.7967 H   0  0  0  0  0  0  0  0  0  0  0  0
   -3.3917  -14.3720   25.5067 H   0  0  0  0  0  0  0  0  0  0  0  0
   -1.5822  -12.6268   22.3922 H   0  0  0  0  0  0  0  0  0  0  0  0
   -0.7231  -12.3865   24.1261 H   0  0  0  0  0  0  0  0  0  0  0  0
    0.7820  -13.4733   21.4709 H   0  0  0  0  0  0  0  0  0  0  0  0
    4.0583  -12.1852   19.1321 H   0  0  0  0  0  0  0  0  0  0  0  0
    3.3344  -12.5478   17.0372 H   0  0  0  0  0  0  0  0  0  0  0  0
    5.5288   -9.7012   18.5848 H   0  0  0  0  0  0  0  0  0  0  0  0
    3.9137   -9.1413   20.5113 H   0  0  0  0  0  0  0  0  0  0  0  0
   -2.9000  -19.2635   21.6647 H   0  0  0  0  0  0  0  0  0  0  0  0
  1  2  1  0
  2  3  1  0
  3  4  2  0
  4  5  1  0
  5  6  2  0
  6  7  1  0
  7  8  1  0
  8  9  2  0
  8 10  1  0
 10 11  1  0
 11 12  1  0
 11 13  1  0
 13 14  1  0
 14 15  1  0
 15 16  2  0
 15 17  1  0
 17 18  2  0
 18 19  1  0
 19 20  2  0
 20 21  1  0
 21 22  2  0
  6 23  1  0
 23  3  1  0
 22 17  1  0
  1 24  1  0
  1 25  1  0
  1 26  1  0
  2 27  1  0
  2 28  1  0
  4 29  1  0
  7 30  1  0
  7 31  1  0
 10 32  1  0
 11 33  1  0
 12 34  1  0
 12 35  1  0
 12 36  1  0
 13 37  1  0
 13 38  1  0
 14 39  1  0
 18 40  1  0
 19 41  1  0
 21 42  1  0
 22 43  1  0
 23 44  1  0
M  END
>  <Energy>  (261) 
391.75043905649267

>  <compound_id>  (261) 
11943

>  <target_id>  (261) 
1

>  <reference_id>  (261) 
49

>  <inspiration_ids>  (261) 
[114, 49]

>  <energy_score>  (261) 
351.3896876063632

>  <distance_score>  (261) 
13.029525247259972

>  <path>  (261) 
/opt/xchem-fragalysis-2/maxwin/BulkDock/SCRATCH/511023/C11943-P49/C11943-P49.minimised.mol

>  <scratch_subdir>  (261) 
/opt/xchem-fragalysis-2/maxwin/BulkDock/SCRATCH/511023/C11943-P49

>  <fragmenstein_runtime>  (261) 
31.39438271522522

>  <fragmenstein_outcome>  (261) 
too moved

>  <fragmenstein_mode>  (261) 
expansion

>  <fragmenstein_error>  (261) 


$$$$
C11895-P114
     RDKit          3D

 44 45  0  0  0  0  0  0  0  0999 V2000
   -4.5506  -22.7103   26.6829 C   0  0  0  0  0  0  0  0  0  0  0  0
   -3.5008  -23.3446   27.5976 C   0  0  0  0  0  0  0  0  0  0  0  0
   -2.5395  -22.3186   27.9511 C   0  0  0  0  0  0  0  0  0  0  0  0
   -2.4188  -21.4093   28.9688 C   0  0  0  0  0  0  0  0  0  0  0  0
   -1.6408  -20.3665   28.5388 N   0  0  0  0  0  0  0  0  0  0  0  0
   -1.2283  -20.7088   27.3344 C   0  0  0  0  0  0  0  0  0  0  0  0
   -0.5856  -19.8869   26.2912 C   0  0  0  0  0  0  0  0  0  0  0  0
    0.8786  -19.6315   26.5752 C   0  0  0  0  0  0  0  0  0  0  0  0
    1.3070  -19.7580   27.6852 O   0  0  0  0  0  0  0  0  0  0  0  0
    1.5211  -19.1550   25.3597 N   0  0  0  0  0  0  0  0  0  0  0  0
    2.8540  -18.5940   25.1391 C   0  0  0  0  0  0  0  0  0  0  0  0
    3.4895  -20.0401   25.0270 C   0  0  0  0  0  0  0  0  0  0  0  0
    3.4024  -17.2728   23.8382 C   0  0  0  0  0  0  0  0  0  0  0  0
    3.7480  -15.4578   23.3497 N   0  0  0  0  0  0  0  0  0  0  0  0
    3.2001  -14.4659   21.8888 C   0  0  0  0  0  0  0  0  0  0  0  0
    2.3854  -14.8461   21.0027 O   0  0  0  0  0  0  0  0  0  0  0  0
    3.9021  -12.8569   21.4158 C   0  0  0  0  0  0  0  0  0  0  0  0
    4.9900  -12.7786   20.3615 C   0  0  0  0  0  0  0  0  0  0  0  0
    6.1155  -11.8715   20.3473 C   0  0  0  0  0  0  0  0  0  0  0  0
    6.2171  -10.9559   21.3753 C   0  0  0  0  0  0  0  0  0  0  0  0
    5.1947  -10.8429   22.3252 N   0  0  0  0  0  0  0  0  0  0  0  0
    4.0058  -11.7968   22.2595 C   0  0  0  0  0  0  0  0  0  0  0  0
   -1.5844  -21.9873   27.0458 N   0  0  0  0  0  0  0  0  0  0  0  0
   -4.3263  -21.6734   26.4071 H   0  0  0  0  0  0  0  0  0  0  0  0
   -4.6408  -23.2714   25.7475 H   0  0  0  0  0  0  0  0  0  0  0  0
   -5.5254  -22.7089   27.1778 H   0  0  0  0  0  0  0  0  0  0  0  0
   -3.0034  -24.1757   27.0834 H   0  0  0  0  0  0  0  0  0  0  0  0
   -3.9362  -23.7408   28.5118 H   0  0  0  0  0  0  0  0  0  0  0  0
   -2.9391  -21.3621   29.9156 H   0  0  0  0  0  0  0  0  0  0  0  0
   -1.0935  -18.9169   26.2770 H   0  0  0  0  0  0  0  0  0  0  0  0
   -0.7059  -20.3558   25.3079 H   0  0  0  0  0  0  0  0  0  0  0  0
    0.8799  -19.2614   24.5804 H   0  0  0  0  0  0  0  0  0  0  0  0
    2.9877  -18.1410   26.1224 H   0  0  0  0  0  0  0  0  0  0  0  0
    4.3810  -20.1464   25.6438 H   0  0  0  0  0  0  0  0  0  0  0  0
    3.6821  -20.3139   23.9836 H   0  0  0  0  0  0  0  0  0  0  0  0
    2.8615  -20.8632   25.4015 H   0  0  0  0  0  0  0  0  0  0  0  0
    3.4797  -18.0358   23.1487 H   0  0  0  0  0  0  0  0  0  0  0  0
    4.2910  -16.9903   24.4486 H   0  0  0  0  0  0  0  0  0  0  0  0
    4.4544  -14.9568   23.8459 H   0  0  0  0  0  0  0  0  0  0  0  0
    4.9590  -13.4355   19.4932 H   0  0  0  0  0  0  0  0  0  0  0  0
    6.8428  -11.9185   19.5462 H   0  0  0  0  0  0  0  0  0  0  0  0
    7.0422  -10.2609   21.4755 H   0  0  0  0  0  0  0  0  0  0  0  0
    3.1757  -11.8260   22.9615 H   0  0  0  0  0  0  0  0  0  0  0  0
   -1.4092  -22.4592   26.1689 H   0  0  0  0  0  0  0  0  0  0  0  0
  1  2  1  0
  2  3  1  0
  3  4  2  0
  4  5  1  0
  5  6  2  0
  6  7  1  0
  7  8  1  0
  8  9  2  0
  8 10  1  0
 10 11  1  0
 11 12  1  0
 11 13  1  0
 13 14  1  0
 14 15  1  0
 15 16  2  0
 15 17  1  0
 17 18  2  0
 18 19  1  0
 19 20  2  0
 20 21  1  0
 21 22  2  0
  6 23  1  0
 23  3  1  0
 22 17  1  0
  1 24  1  0
  1 25  1  0
  1 26  1  0
  2 27  1  0
  2 28  1  0
  4 29  1  0
  7 30  1  0
  7 31  1  0
 10 32  1  0
 11 33  1  0
 12 34  1  0
 12 35  1  0
 12 36  1  0
 13 37  1  0
 13 38  1  0
 14 39  1  0
 18 40  1  0
 19 41  1  0
 20 42  1  0
 22 43  1  0
 23 44  1  0
M  END
>  <Energy>  (262) 
369.88811815804206

>  <compound_id>  (262) 
11895

>  <target_id>  (262) 
1

>  <reference_id>  (262) 
114

>  <inspiration_ids>  (262) 
[114, 49]

>  <energy_score>  (262) 
315.93041292299813

>  <distance_score>  (262) 
13.400483373358739

>  <path>  (262) 
/opt/xchem-fragalysis-2/maxwin/BulkDock/SCRATCH/511023/C11895-P114/C11895-P114.minimised.mol

>  <scratch_subdir>  (262) 
/opt/xchem-fragalysis-2/maxwin/BulkDock/SCRATCH/511023/C11895-P114

>  <fragmenstein_runtime>  (262) 
35.7791223526001

>  <fragmenstein_outcome>  (262) 
too moved

>  <fragmenstein_mode>  (262) 
expansion

>  <fragmenstein_error>  (262) 


$$$$
C11895-P49
     RDKit          3D

 44 45  0  0  0  0  0  0  0  0999 V2000
   -8.1637  -22.4831   27.7564 C   0  0  0  0  0  0  0  0  0  0  0  0
   -6.8736  -21.5352   27.2390 C   0  0  0  0  0  0  0  0  0  0  0  0
   -5.2409  -21.4330   26.8264 C   0  0  0  0  0  0  0  0  0  0  0  0
   -4.5921  -21.7560   25.6153 C   0  0  0  0  0  0  0  0  0  0  0  0
   -3.8278  -20.6701   25.1093 N   0  0  0  0  0  0  0  0  0  0  0  0
   -3.9688  -19.6817   25.9719 C   0  0  0  0  0  0  0  0  0  0  0  0
   -3.5322  -18.1776   25.9677 C   0  0  0  0  0  0  0  0  0  0  0  0
   -4.0189  -17.1875   24.8271 C   0  0  0  0  0  0  0  0  0  0  0  0
   -4.8363  -17.5816   24.0449 O   0  0  0  0  0  0  0  0  0  0  0  0
   -3.4089  -15.8322   24.9918 N   0  0  0  0  0  0  0  0  0  0  0  0
   -3.7107  -14.5042   24.2836 C   0  0  0  0  0  0  0  0  0  0  0  0
   -4.8943  -13.9179   25.0628 C   0  0  0  0  0  0  0  0  0  0  0  0
   -2.4623  -13.2747   24.0829 C   0  0  0  0  0  0  0  0  0  0  0  0
   -0.9762  -12.7721   23.1742 N   0  0  0  0  0  0  0  0  0  0  0  0
    0.5275  -11.8913   23.7505 C   0  0  0  0  0  0  0  0  0  0  0  0
    0.8468  -11.5559   24.8874 O   0  0  0  0  0  0  0  0  0  0  0  0
    1.5858  -11.3521   22.4310 C   0  0  0  0  0  0  0  0  0  0  0  0
    2.4638  -11.8256   21.5702 C   0  0  0  0  0  0  0  0  0  0  0  0
    3.0591  -10.9616   20.2108 C   0  0  0  0  0  0  0  0  0  0  0  0
    3.3979   -9.6427   20.0628 C   0  0  0  0  0  0  0  0  0  0  0  0
    2.2736   -9.3648   20.5579 N   0  0  0  0  0  0  0  0  0  0  0  0
    1.3702  -10.3578   21.5999 C   0  0  0  0  0  0  0  0  0  0  0  0
   -4.4425  -20.3103   27.1136 N   0  0  0  0  0  0  0  0  0  0  0  0
   -8.9062  -21.8382   28.2413 H   0  0  0  0  0  0  0  0  0  0  0  0
   -8.7014  -22.9548   26.9318 H   0  0  0  0  0  0  0  0  0  0  0  0
   -8.0368  -23.3139   28.4700 H   0  0  0  0  0  0  0  0  0  0  0  0
   -7.1832  -20.5182   27.4581 H   0  0  0  0  0  0  0  0  0  0  0  0
   -7.0548  -21.8363   26.2151 H   0  0  0  0  0  0  0  0  0  0  0  0
   -4.8215  -22.5683   24.9341 H   0  0  0  0  0  0  0  0  0  0  0  0
   -3.9130  -17.7177   26.8809 H   0  0  0  0  0  0  0  0  0  0  0  0
   -2.4565  -18.1287   26.0680 H   0  0  0  0  0  0  0  0  0  0  0  0
   -2.8118  -15.8328   25.8101 H   0  0  0  0  0  0  0  0  0  0  0  0
   -4.1205  -14.7427   23.2931 H   0  0  0  0  0  0  0  0  0  0  0  0
   -5.2376  -12.9907   24.5929 H   0  0  0  0  0  0  0  0  0  0  0  0
   -4.6066  -13.6905   26.0949 H   0  0  0  0  0  0  0  0  0  0  0  0
   -5.7374  -14.6166   25.0942 H   0  0  0  0  0  0  0  0  0  0  0  0
   -2.2464  -14.0704   23.3744 H   0  0  0  0  0  0  0  0  0  0  0  0
   -2.2284  -13.1748   25.1376 H   0  0  0  0  0  0  0  0  0  0  0  0
   -0.9794  -12.8248   22.1811 H   0  0  0  0  0  0  0  0  0  0  0  0
    2.6411  -12.9050   21.5519 H   0  0  0  0  0  0  0  0  0  0  0  0
    3.2756  -11.5937   19.3064 H   0  0  0  0  0  0  0  0  0  0  0  0
    3.9303   -9.0433   19.3573 H   0  0  0  0  0  0  0  0  0  0  0  0
    0.3334  -10.2929   21.2423 H   0  0  0  0  0  0  0  0  0  0  0  0
   -4.3410  -19.8765   27.9989 H   0  0  0  0  0  0  0  0  0  0  0  0
  1  2  1  0
  2  3  1  0
  3  4  2  0
  4  5  1  0
  5  6  2  0
  6  7  1  0
  7  8  1  0
  8  9  2  0
  8 10  1  0
 10 11  1  0
 11 12  1  0
 11 13  1  0
 13 14  1  0
 14 15  1  0
 15 16  2  0
 15 17  1  0
 17 18  2  0
 18 19  1  0
 19 20  2  0
 20 21  1  0
 21 22  2  0
  6 23  1  0
 23  3  1  0
 22 17  1  0
  1 24  1  0
  1 25  1  0
  1 26  1  0
  2 27  1  0
  2 28  1  0
  4 29  1  0
  7 30  1  0
  7 31  1  0
 10 32  1  0
 11 33  1  0
 12 34  1  0
 12 35  1  0
 12 36  1  0
 13 37  1  0
 13 38  1  0
 14 39  1  0
 18 40  1  0
 19 41  1  0
 20 42  1  0
 22 43  1  0
 23 44  1  0
M  END
>  <Energy>  (263) 
512.26058850616516

>  <compound_id>  (263) 
11895

>  <target_id>  (263) 
1

>  <reference_id>  (263) 
49

>  <inspiration_ids>  (263) 
[114, 49]

>  <energy_score>  (263) 
458.3028832711176

>  <distance_score>  (263) 
12.404500482708283

>  <path>  (263) 
/opt/xchem-fragalysis-2/maxwin/BulkDock/SCRATCH/511023/C11895-P49/C11895-P49.minimised.mol

>  <scratch_subdir>  (263) 
/opt/xchem-fragalysis-2/maxwin/BulkDock/SCRATCH/511023/C11895-P49

>  <fragmenstein_runtime>  (263) 
22.480074882507324

>  <fragmenstein_outcome>  (263) 
too moved

>  <fragmenstein_mode>  (263) 
expansion

>  <fragmenstein_error>  (263) 


$$$$
C8990-P114
     RDKit          3D

 41 42  0  0  0  0  0  0  0  0999 V2000
   -4.3046  -19.2306   24.5144 C   0  0  0  0  0  0  0  0  0  0  0  0
   -4.9625  -17.9612   23.9569 C   0  0  0  0  0  0  0  0  0  0  0  0
   -4.4590  -16.7528   24.7028 C   0  0  0  0  0  0  0  0  0  0  0  0
   -4.1554  -16.5024   26.0301 C   0  0  0  0  0  0  0  0  0  0  0  0
   -3.2402  -15.4834   26.1236 N   0  0  0  0  0  0  0  0  0  0  0  0
   -2.8730  -15.2467   24.8687 C   0  0  0  0  0  0  0  0  0  0  0  0
   -1.2246  -14.9175   24.3077 C   0  0  0  0  0  0  0  0  0  0  0  0
    0.1200  -14.0541   23.3423 C   0  0  0  0  0  0  0  0  0  0  0  0
   -0.1083  -13.0362   22.8311 O   0  0  0  0  0  0  0  0  0  0  0  0
    1.7335  -14.6702   23.3187 N   0  0  0  0  0  0  0  0  0  0  0  0
    3.0987  -14.0488   22.8048 C   0  0  0  0  0  0  0  0  0  0  0  0
    2.9582  -12.9559   23.7872 C   0  0  0  0  0  0  0  0  0  0  0  0
    3.9535  -13.1183   21.2117 C   0  0  0  0  0  0  0  0  0  0  0  0
    5.2085  -12.1914   20.1794 N   0  0  0  0  0  0  0  0  0  0  0  0
    6.7112  -12.1391   20.2364 C   0  0  0  0  0  0  0  0  0  0  0  0
    7.4346  -12.7767   20.9361 O   0  0  0  0  0  0  0  0  0  0  0  0
    7.7608  -10.8263   19.2234 C   0  0  0  0  0  0  0  0  0  0  0  0
    9.1581  -10.4027   19.2199 C   0  0  0  0  0  0  0  0  0  0  0  0
   10.2171  -10.4772   17.8197 S   0  0  0  0  0  0  0  0  0  0  0  0
    8.8316  -10.1733   16.9602 C   0  0  0  0  0  0  0  0  0  0  0  0
    7.7753  -10.5258   17.6688 N   0  0  0  0  0  0  0  0  0  0  0  0
   -3.9299  -15.6509   24.0485 N   0  0  0  0  0  0  0  0  0  0  0  0
   -4.7140  -19.4687   25.4968 H   0  0  0  0  0  0  0  0  0  0  0  0
   -4.4570  -20.0746   23.8348 H   0  0  0  0  0  0  0  0  0  0  0  0
   -3.2274  -19.1434   24.6760 H   0  0  0  0  0  0  0  0  0  0  0  0
   -4.7189  -17.8712   22.8896 H   0  0  0  0  0  0  0  0  0  0  0  0
   -6.0362  -18.0318   23.9156 H   0  0  0  0  0  0  0  0  0  0  0  0
   -4.4159  -17.0806   26.9090 H   0  0  0  0  0  0  0  0  0  0  0  0
   -1.3094  -14.0403   24.9755 H   0  0  0  0  0  0  0  0  0  0  0  0
   -1.6478  -14.9977   23.3450 H   0  0  0  0  0  0  0  0  0  0  0  0
    1.7298  -15.5354   23.7006 H   0  0  0  0  0  0  0  0  0  0  0  0
    3.6611  -14.9226   23.2220 H   0  0  0  0  0  0  0  0  0  0  0  0
    2.0759  -12.8847   24.4094 H   0  0  0  0  0  0  0  0  0  0  0  0
    3.6717  -13.2572   24.5080 H   0  0  0  0  0  0  0  0  0  0  0  0
    2.8904  -12.0244   23.2656 H   0  0  0  0  0  0  0  0  0  0  0  0
    3.3069  -13.4576   20.4852 H   0  0  0  0  0  0  0  0  0  0  0  0
    3.8466  -12.1945   21.7429 H   0  0  0  0  0  0  0  0  0  0  0  0
    4.8959  -11.6012   19.4325 H   0  0  0  0  0  0  0  0  0  0  0  0
    9.6115   -9.5705   19.7386 H   0  0  0  0  0  0  0  0  0  0  0  0
    8.7750   -9.8901   15.9171 H   0  0  0  0  0  0  0  0  0  0  0  0
   -3.8893  -15.5653   23.0404 H   0  0  0  0  0  0  0  0  0  0  0  0
  1  2  1  0
  2  3  1  0
  3  4  2  0
  4  5  1  0
  5  6  2  0
  6  7  1  0
  7  8  1  0
  8  9  2  0
  8 10  1  0
 10 11  1  0
 11 12  1  0
 11 13  1  0
 13 14  1  0
 14 15  1  0
 15 16  2  0
 15 17  1  0
 17 18  2  0
 18 19  1  0
 19 20  1  0
 20 21  2  0
  6 22  1  0
 22  3  1  0
 21 17  1  0
  1 23  1  0
  1 24  1  0
  1 25  1  0
  2 26  1  0
  2 27  1  0
  4 28  1  0
  7 29  1  0
  7 30  1  0
 10 31  1  0
 11 32  1  0
 12 33  1  0
 12 34  1  0
 12 35  1  0
 13 36  1  0
 13 37  1  0
 14 38  1  0
 18 39  1  0
 20 40  1  0
 22 41  1  0
M  END
>  <Energy>  (264) 
615.78549342787358

>  <compound_id>  (264) 
8990

>  <target_id>  (264) 
1

>  <reference_id>  (264) 
114

>  <inspiration_ids>  (264) 
[114, 49]

>  <energy_score>  (264) 
508.39705149996223

>  <distance_score>  (264) 
11.667586577660266

>  <path>  (264) 
/opt/xchem-fragalysis-2/maxwin/BulkDock/SCRATCH/511023/C8990-P114/C8990-P114.minimised.mol

>  <scratch_subdir>  (264) 
/opt/xchem-fragalysis-2/maxwin/BulkDock/SCRATCH/511023/C8990-P114

>  <fragmenstein_runtime>  (264) 
32.70626616477966

>  <fragmenstein_outcome>  (264) 
too moved

>  <fragmenstein_mode>  (264) 
expansion

>  <fragmenstein_error>  (264) 


$$$$
C8990-P49
     RDKit          3D

 41 42  0  0  0  0  0  0  0  0999 V2000
   -4.2100  -22.2483   24.5942 C   0  0  0  0  0  0  0  0  0  0  0  0
   -4.0278  -20.8624   24.0229 C   0  0  0  0  0  0  0  0  0  0  0  0
   -3.8225  -19.8089   25.0640 C   0  0  0  0  0  0  0  0  0  0  0  0
   -4.0816  -19.6381   26.4022 C   0  0  0  0  0  0  0  0  0  0  0  0
   -3.2920  -18.6185   26.9327 N   0  0  0  0  0  0  0  0  0  0  0  0
   -2.5699  -18.1063   25.9402 C   0  0  0  0  0  0  0  0  0  0  0  0
   -1.2501  -17.1550   26.0694 C   0  0  0  0  0  0  0  0  0  0  0  0
    0.3945  -16.5020   25.4051 C   0  0  0  0  0  0  0  0  0  0  0  0
    0.8712  -15.6887   26.2134 O   0  0  0  0  0  0  0  0  0  0  0  0
    1.3122  -16.7273   23.6479 N   0  0  0  0  0  0  0  0  0  0  0  0
    2.9929  -15.6601   22.6821 C   0  0  0  0  0  0  0  0  0  0  0  0
    3.3262  -16.3416   24.1053 C   0  0  0  0  0  0  0  0  0  0  0  0
    3.7389  -13.8101   21.4069 C   0  0  0  0  0  0  0  0  0  0  0  0
    4.5991  -12.7802   19.4847 N   0  0  0  0  0  0  0  0  0  0  0  0
    5.6918  -11.1352   19.2455 C   0  0  0  0  0  0  0  0  0  0  0  0
    6.2156  -10.3965   20.1933 O   0  0  0  0  0  0  0  0  0  0  0  0
    5.9147  -10.4823   17.9958 C   0  0  0  0  0  0  0  0  0  0  0  0
    7.1971   -9.8296   17.8360 C   0  0  0  0  0  0  0  0  0  0  0  0
    7.2155   -8.1431   17.7515 S   0  0  0  0  0  0  0  0  0  0  0  0
    5.5582   -8.2362   17.4814 C   0  0  0  0  0  0  0  0  0  0  0  0
    5.0338   -9.4208   17.7118 N   0  0  0  0  0  0  0  0  0  0  0  0
   -2.9993  -18.7554   24.7884 N   0  0  0  0  0  0  0  0  0  0  0  0
   -3.3309  -22.5492   25.1739 H   0  0  0  0  0  0  0  0  0  0  0  0
   -4.3539  -22.9776   23.7909 H   0  0  0  0  0  0  0  0  0  0  0  0
   -5.0799  -22.2852   25.2502 H   0  0  0  0  0  0  0  0  0  0  0  0
   -4.8277  -20.5914   23.3315 H   0  0  0  0  0  0  0  0  0  0  0  0
   -3.1284  -20.9000   23.3912 H   0  0  0  0  0  0  0  0  0  0  0  0
   -4.6735  -20.2749   27.0416 H   0  0  0  0  0  0  0  0  0  0  0  0
   -1.7983  -16.2690   25.6923 H   0  0  0  0  0  0  0  0  0  0  0  0
   -1.2648  -16.9008   27.1477 H   0  0  0  0  0  0  0  0  0  0  0  0
    0.8552  -17.4829   23.1383 H   0  0  0  0  0  0  0  0  0  0  0  0
    3.1648  -16.4753   22.0321 H   0  0  0  0  0  0  0  0  0  0  0  0
    3.0213  -17.3792   23.8710 H   0  0  0  0  0  0  0  0  0  0  0  0
    4.0995  -17.0308   24.4825 H   0  0  0  0  0  0  0  0  0  0  0  0
    2.8695  -15.8354   24.9538 H   0  0  0  0  0  0  0  0  0  0  0  0
    4.3425  -13.4717   22.2576 H   0  0  0  0  0  0  0  0  0  0  0  0
    2.8000  -13.2193   21.4732 H   0  0  0  0  0  0  0  0  0  0  0  0
    4.2634  -13.0904   18.5852 H   0  0  0  0  0  0  0  0  0  0  0  0
    8.1466  -10.3063   17.7002 H   0  0  0  0  0  0  0  0  0  0  0  0
    4.9559   -7.3811   17.2058 H   0  0  0  0  0  0  0  0  0  0  0  0
   -2.3970  -18.7524   23.9810 H   0  0  0  0  0  0  0  0  0  0  0  0
  1  2  1  0
  2  3  1  0
  3  4  2  0
  4  5  1  0
  5  6  2  0
  6  7  1  0
  7  8  1  0
  8  9  2  0
  8 10  1  0
 10 11  1  0
 11 12  1  0
 11 13  1  0
 13 14  1  0
 14 15  1  0
 15 16  2  0
 15 17  1  0
 17 18  2  0
 18 19  1  0
 19 20  1  0
 20 21  2  0
  6 22  1  0
 22  3  1  0
 21 17  1  0
  1 23  1  0
  1 24  1  0
  1 25  1  0
  2 26  1  0
  2 27  1  0
  4 28  1  0
  7 29  1  0
  7 30  1  0
 10 31  1  0
 11 32  1  0
 12 33  1  0
 12 34  1  0
 12 35  1  0
 13 36  1  0
 13 37  1  0
 14 38  1  0
 18 39  1  0
 20 40  1  0
 22 41  1  0
M  END
>  <Energy>  (265) 
1396.9076852426274

>  <compound_id>  (265) 
8990

>  <target_id>  (265) 
1

>  <reference_id>  (265) 
49

>  <inspiration_ids>  (265) 
[114, 49]

>  <energy_score>  (265) 
1289.5192433147288

>  <distance_score>  (265) 
10.651149724574168

>  <path>  (265) 
/opt/xchem-fragalysis-2/maxwin/BulkDock/SCRATCH/511023/C8990-P49/C8990-P49.minimised.mol

>  <scratch_subdir>  (265) 
/opt/xchem-fragalysis-2/maxwin/BulkDock/SCRATCH/511023/C8990-P49

>  <fragmenstein_runtime>  (265) 
15.3693528175354

>  <fragmenstein_outcome>  (265) 
too moved

>  <fragmenstein_mode>  (265) 
expansion

>  <fragmenstein_error>  (265) 


$$$$
C7727-P114
     RDKit          3D

 41 42  0  0  0  0  0  0  0  0999 V2000
   -3.0963  -23.3325   20.4676 C   0  0  0  0  0  0  0  0  0  0  0  0
   -3.9330  -22.1781   21.0025 C   0  0  0  0  0  0  0  0  0  0  0  0
   -3.1026  -21.0200   21.3758 C   0  0  0  0  0  0  0  0  0  0  0  0
   -2.1647  -20.8993   22.3655 C   0  0  0  0  0  0  0  0  0  0  0  0
   -1.5390  -19.6772   22.2725 N   0  0  0  0  0  0  0  0  0  0  0  0
   -2.0943  -18.9972   21.2608 C   0  0  0  0  0  0  0  0  0  0  0  0
   -1.7172  -17.5496   20.7077 C   0  0  0  0  0  0  0  0  0  0  0  0
   -0.4500  -16.1972   21.0900 C   0  0  0  0  0  0  0  0  0  0  0  0
    0.5755  -16.3491   20.4592 O   0  0  0  0  0  0  0  0  0  0  0  0
   -0.9631  -14.7832   22.1899 N   0  0  0  0  0  0  0  0  0  0  0  0
   -0.1076  -12.9656   22.5864 C   0  0  0  0  0  0  0  0  0  0  0  0
   -1.2341  -11.5963   21.4896 C   0  0  0  0  0  0  0  0  0  0  0  0
    1.8130  -11.9377   22.9336 C   0  0  0  0  0  0  0  0  0  0  0  0
    3.1821  -10.5734   22.8469 N   0  0  0  0  0  0  0  0  0  0  0  0
    3.0508   -8.6692   23.0518 C   0  0  0  0  0  0  0  0  0  0  0  0
    1.9848   -8.1090   23.1495 O   0  0  0  0  0  0  0  0  0  0  0  0
    4.6383   -7.5852   23.3425 C   0  0  0  0  0  0  0  0  0  0  0  0
    6.0459   -6.9017   23.0799 C   0  0  0  0  0  0  0  0  0  0  0  0
    6.9448   -6.2037   23.8896 N   0  0  0  0  0  0  0  0  0  0  0  0
    6.4393   -6.1844   25.0632 C   0  0  0  0  0  0  0  0  0  0  0  0
    5.0323   -7.0437   25.2764 S   0  0  0  0  0  0  0  0  0  0  0  0
   -3.0895  -19.8197   20.6912 N   0  0  0  0  0  0  0  0  0  0  0  0
   -2.5163  -23.0277   19.5896 H   0  0  0  0  0  0  0  0  0  0  0  0
   -3.7442  -24.1653   20.1761 H   0  0  0  0  0  0  0  0  0  0  0  0
   -2.3928  -23.6998   21.2226 H   0  0  0  0  0  0  0  0  0  0  0  0
   -4.4789  -22.5136   21.8893 H   0  0  0  0  0  0  0  0  0  0  0  0
   -4.6252  -21.8674   20.2147 H   0  0  0  0  0  0  0  0  0  0  0  0
   -1.8624  -21.6278   23.1075 H   0  0  0  0  0  0  0  0  0  0  0  0
   -1.6618  -17.6030   19.6125 H   0  0  0  0  0  0  0  0  0  0  0  0
   -2.7107  -17.0520   20.5981 H   0  0  0  0  0  0  0  0  0  0  0  0
   -1.8386  -14.9966   22.6346 H   0  0  0  0  0  0  0  0  0  0  0  0
   -0.2342  -13.6774   23.4510 H   0  0  0  0  0  0  0  0  0  0  0  0
   -1.2434  -11.8651   20.4133 H   0  0  0  0  0  0  0  0  0  0  0  0
   -0.7402  -10.6144   21.6337 H   0  0  0  0  0  0  0  0  0  0  0  0
   -2.3163  -11.4514   21.4991 H   0  0  0  0  0  0  0  0  0  0  0  0
    1.7642  -11.9247   24.0256 H   0  0  0  0  0  0  0  0  0  0  0  0
    2.6951  -12.6626   23.0683 H   0  0  0  0  0  0  0  0  0  0  0  0
    4.1719  -10.8322   22.6921 H   0  0  0  0  0  0  0  0  0  0  0  0
    6.5471   -7.0034   22.1313 H   0  0  0  0  0  0  0  0  0  0  0  0
    6.9258   -5.6770   25.8851 H   0  0  0  0  0  0  0  0  0  0  0  0
   -3.6342  -19.5874   19.8724 H   0  0  0  0  0  0  0  0  0  0  0  0
  1  2  1  0
  2  3  1  0
  3  4  2  0
  4  5  1  0
  5  6  2  0
  6  7  1  0
  7  8  1  0
  8  9  2  0
  8 10  1  0
 10 11  1  0
 11 12  1  0
 11 13  1  0
 13 14  1  0
 14 15  1  0
 15 16  2  0
 15 17  1  0
 17 18  2  0
 18 19  1  0
 19 20  2  0
 20 21  1  0
  6 22  1  0
 22  3  1  0
 21 17  1  0
  1 23  1  0
  1 24  1  0
  1 25  1  0
  2 26  1  0
  2 27  1  0
  4 28  1  0
  7 29  1  0
  7 30  1  0
 10 31  1  0
 11 32  1  0
 12 33  1  0
 12 34  1  0
 12 35  1  0
 13 36  1  0
 13 37  1  0
 14 38  1  0
 18 39  1  0
 20 40  1  0
 22 41  1  0
M  END
>  <Energy>  (266) 
849.30316354898673

>  <compound_id>  (266) 
7727

>  <target_id>  (266) 
1

>  <reference_id>  (266) 
114

>  <inspiration_ids>  (266) 
[114, 49]

>  <energy_score>  (266) 
798.8700063318727

>  <distance_score>  (266) 
12.57026375572026

>  <path>  (266) 
/opt/xchem-fragalysis-2/maxwin/BulkDock/SCRATCH/511023/C7727-P114/C7727-P114.minimised.mol

>  <scratch_subdir>  (266) 
/opt/xchem-fragalysis-2/maxwin/BulkDock/SCRATCH/511023/C7727-P114

>  <fragmenstein_runtime>  (266) 
21.974697828292847

>  <fragmenstein_outcome>  (266) 
too moved

>  <fragmenstein_mode>  (266) 
expansion

>  <fragmenstein_error>  (266) 


$$$$
C7727-P49
     RDKit          3D

 41 42  0  0  0  0  0  0  0  0999 V2000
   -5.2338  -21.5930   26.7756 C   0  0  0  0  0  0  0  0  0  0  0  0
   -4.1551  -21.5760   25.7419 C   0  0  0  0  0  0  0  0  0  0  0  0
   -3.2938  -20.4997   26.2043 C   0  0  0  0  0  0  0  0  0  0  0  0
   -2.5558  -20.3592   27.3485 C   0  0  0  0  0  0  0  0  0  0  0  0
   -1.9002  -19.1698   27.3029 N   0  0  0  0  0  0  0  0  0  0  0  0
   -2.3276  -18.5063   26.2285 C   0  0  0  0  0  0  0  0  0  0  0  0
   -1.7736  -17.1901   25.5178 C   0  0  0  0  0  0  0  0  0  0  0  0
   -0.1344  -16.6677   25.3563 C   0  0  0  0  0  0  0  0  0  0  0  0
    0.1345  -15.9672   26.2758 O   0  0  0  0  0  0  0  0  0  0  0  0
    1.1383  -16.8910   23.9588 N   0  0  0  0  0  0  0  0  0  0  0  0
    2.9314  -15.9826   23.6687 C   0  0  0  0  0  0  0  0  0  0  0  0
    2.8088  -15.4114   25.3794 C   0  0  0  0  0  0  0  0  0  0  0  0
    4.0727  -14.2522   22.9398 C   0  0  0  0  0  0  0  0  0  0  0  0
    4.1439  -12.5563   23.9827 N   0  0  0  0  0  0  0  0  0  0  0  0
    5.2498  -11.0771   23.8443 C   0  0  0  0  0  0  0  0  0  0  0  0
    6.0758  -10.9246   22.9709 O   0  0  0  0  0  0  0  0  0  0  0  0
    5.3654   -9.9134   24.8792 C   0  0  0  0  0  0  0  0  0  0  0  0
    6.2104   -9.3446   25.8638 C   0  0  0  0  0  0  0  0  0  0  0  0
    7.5764   -9.4330   25.6632 N   0  0  0  0  0  0  0  0  0  0  0  0
    7.7849   -8.9616   24.4627 C   0  0  0  0  0  0  0  0  0  0  0  0
    6.3230   -8.3618   23.7885 S   0  0  0  0  0  0  0  0  0  0  0  0
   -3.2793  -19.2818   25.6058 N   0  0  0  0  0  0  0  0  0  0  0  0
   -5.4273  -20.6039   27.1825 H   0  0  0  0  0  0  0  0  0  0  0  0
   -4.9046  -22.1569   27.6415 H   0  0  0  0  0  0  0  0  0  0  0  0
   -6.1649  -21.9654   26.3601 H   0  0  0  0  0  0  0  0  0  0  0  0
   -4.5333  -21.3785   24.7366 H   0  0  0  0  0  0  0  0  0  0  0  0
   -3.6002  -22.5149   25.6873 H   0  0  0  0  0  0  0  0  0  0  0  0
   -2.4116  -21.0608   28.1595 H   0  0  0  0  0  0  0  0  0  0  0  0
   -2.0827  -16.4513   26.2704 H   0  0  0  0  0  0  0  0  0  0  0  0
   -2.3468  -16.7301   24.7512 H   0  0  0  0  0  0  0  0  0  0  0  0
    0.7835  -17.5881   23.2963 H   0  0  0  0  0  0  0  0  0  0  0  0
    3.4730  -16.8913   23.9341 H   0  0  0  0  0  0  0  0  0  0  0  0
    3.0567  -16.3037   25.9079 H   0  0  0  0  0  0  0  0  0  0  0  0
    1.9078  -15.0719   25.8597 H   0  0  0  0  0  0  0  0  0  0  0  0
    3.4033  -14.5527   25.6777 H   0  0  0  0  0  0  0  0  0  0  0  0
    3.6152  -13.8617   22.0148 H   0  0  0  0  0  0  0  0  0  0  0  0
    5.0991  -14.4933   22.6715 H   0  0  0  0  0  0  0  0  0  0  0  0
    3.4892  -12.4134   24.7409 H   0  0  0  0  0  0  0  0  0  0  0  0
    5.8399   -9.0415   26.8402 H   0  0  0  0  0  0  0  0  0  0  0  0
    8.7656   -8.8208   24.0291 H   0  0  0  0  0  0  0  0  0  0  0  0
   -3.8366  -18.9687   24.8254 H   0  0  0  0  0  0  0  0  0  0  0  0
  1  2  1  0
  2  3  1  0
  3  4  2  0
  4  5  1  0
  5  6  2  0
  6  7  1  0
  7  8  1  0
  8  9  2  0
  8 10  1  0
 10 11  1  0
 11 12  1  0
 11 13  1  0
 13 14  1  0
 14 15  1  0
 15 16  2  0
 15 17  1  0
 17 18  2  0
 18 19  1  0
 19 20  2  0
 20 21  1  0
  6 22  1  0
 22  3  1  0
 21 17  1  0
  1 23  1  0
  1 24  1  0
  1 25  1  0
  2 26  1  0
  2 27  1  0
  4 28  1  0
  7 29  1  0
  7 30  1  0
 10 31  1  0
 11 32  1  0
 12 33  1  0
 12 34  1  0
 12 35  1  0
 13 36  1  0
 13 37  1  0
 14 38  1  0
 18 39  1  0
 20 40  1  0
 22 41  1  0
M  END
>  <Energy>  (267) 
659.66157783782899

>  <compound_id>  (267) 
7727

>  <target_id>  (267) 
1

>  <reference_id>  (267) 
49

>  <inspiration_ids>  (267) 
[114, 49]

>  <energy_score>  (267) 
609.22842062071

>  <distance_score>  (267) 
12.033662416564908

>  <path>  (267) 
/opt/xchem-fragalysis-2/maxwin/BulkDock/SCRATCH/511023/C7727-P49/C7727-P49.minimised.mol

>  <scratch_subdir>  (267) 
/opt/xchem-fragalysis-2/maxwin/BulkDock/SCRATCH/511023/C7727-P49

>  <fragmenstein_runtime>  (267) 
22.62561058998108

>  <fragmenstein_outcome>  (267) 
too moved

>  <fragmenstein_mode>  (267) 
expansion

>  <fragmenstein_error>  (267) 


$$$$
C7728-P114
     RDKit          3D

 38 39  0  0  0  0  0  0  0  0999 V2000
    3.4058  -13.5095   21.5080 C   0  0  0  0  0  0  0  0  0  0  0  0
    3.2867  -12.9778   23.1658 C   0  0  0  0  0  0  0  0  0  0  0  0
    4.3291  -11.7664   21.8990 C   0  0  0  0  0  0  0  0  0  0  0  0
    6.0420  -11.8403   20.9353 N   0  0  0  0  0  0  0  0  0  0  0  0
    6.6362  -11.0259   19.4126 C   0  0  0  0  0  0  0  0  0  0  0  0
    5.8202  -10.4441   18.9015 O   0  0  0  0  0  0  0  0  0  0  0  0
    8.2854  -10.7031   18.5002 C   0  0  0  0  0  0  0  0  0  0  0  0
    9.6524  -11.1898   18.0683 C   0  0  0  0  0  0  0  0  0  0  0  0
   10.5552  -10.3217   17.4969 N   0  0  0  0  0  0  0  0  0  0  0  0
    9.8735   -9.5924   16.6833 C   0  0  0  0  0  0  0  0  0  0  0  0
    8.2517   -9.9465   16.5697 S   0  0  0  0  0  0  0  0  0  0  0  0
    1.6235  -13.7746   23.7162 N   0  0  0  0  0  0  0  0  0  0  0  0
    0.8601  -13.7739   25.1665 C   0  0  0  0  0  0  0  0  0  0  0  0
    1.2256  -13.3500   26.2448 O   0  0  0  0  0  0  0  0  0  0  0  0
   -0.9747  -14.5130   24.6885 C   0  0  0  0  0  0  0  0  0  0  0  0
   -2.5856  -14.9480   25.6044 C   0  0  0  0  0  0  0  0  0  0  0  0
   -3.0013  -16.2101   25.8728 N   0  0  0  0  0  0  0  0  0  0  0  0
   -3.9855  -16.1893   26.8300 C   0  0  0  0  0  0  0  0  0  0  0  0
   -4.4173  -14.9153   26.9741 C   0  0  0  0  0  0  0  0  0  0  0  0
   -3.6152  -14.1501   26.1452 N   0  0  0  0  0  0  0  0  0  0  0  0
   -3.9531  -12.7656   26.0097 C   0  0  0  0  0  0  0  0  0  0  0  0
    4.3163  -13.3151   20.9098 H   0  0  0  0  0  0  0  0  0  0  0  0
    2.7567  -13.8585   20.7103 H   0  0  0  0  0  0  0  0  0  0  0  0
    3.2784  -14.4954   21.9516 H   0  0  0  0  0  0  0  0  0  0  0  0
    2.6934  -12.0778   23.3324 H   0  0  0  0  0  0  0  0  0  0  0  0
    3.8234  -10.9075   22.1997 H   0  0  0  0  0  0  0  0  0  0  0  0
    4.9528  -11.1331   22.6148 H   0  0  0  0  0  0  0  0  0  0  0  0
    6.7915  -12.4087   21.2903 H   0  0  0  0  0  0  0  0  0  0  0  0
   10.1757  -12.0555   18.4267 H   0  0  0  0  0  0  0  0  0  0  0  0
   10.3148   -8.8361   16.0860 H   0  0  0  0  0  0  0  0  0  0  0  0
    1.0355  -14.3297   22.9999 H   0  0  0  0  0  0  0  0  0  0  0  0
   -1.3416  -13.5661   25.1330 H   0  0  0  0  0  0  0  0  0  0  0  0
   -1.0904  -14.7125   23.6369 H   0  0  0  0  0  0  0  0  0  0  0  0
   -4.3657  -17.0907   27.2953 H   0  0  0  0  0  0  0  0  0  0  0  0
   -5.2129  -14.4868   27.5683 H   0  0  0  0  0  0  0  0  0  0  0  0
   -4.1383  -12.3399   27.0008 H   0  0  0  0  0  0  0  0  0  0  0  0
   -3.1463  -12.2121   25.5457 H   0  0  0  0  0  0  0  0  0  0  0  0
   -4.8634  -12.6842   25.4112 H   0  0  0  0  0  0  0  0  0  0  0  0
  1  2  1  0
  2  3  1  0
  3  4  1  0
  4  5  1  0
  5  6  2  0
  5  7  1  0
  7  8  2  0
  8  9  1  0
  9 10  2  0
 10 11  1  0
  2 12  1  0
 12 13  1  0
 13 14  2  0
 13 15  1  0
 15 16  1  0
 16 17  2  0
 17 18  1  0
 18 19  2  0
 19 20  1  0
 20 21  1  0
 11  7  1  0
 20 16  1  0
  1 22  1  0
  1 23  1  0
  1 24  1  0
  2 25  1  0
  3 26  1  0
  3 27  1  0
  4 28  1  0
  8 29  1  0
 10 30  1  0
 12 31  1  0
 15 32  1  0
 15 33  1  0
 18 34  1  0
 19 35  1  0
 21 36  1  0
 21 37  1  0
 21 38  1  0
M  END
>  <Energy>  (268) 
772.56160438013467

>  <compound_id>  (268) 
7728

>  <target_id>  (268) 
1

>  <reference_id>  (268) 
114

>  <inspiration_ids>  (268) 
[114, 49]

>  <energy_score>  (268) 
686.4101343525086

>  <distance_score>  (268) 
12.280424706962048

>  <path>  (268) 
/opt/xchem-fragalysis-2/maxwin/BulkDock/SCRATCH/511023/C7728-P114/C7728-P114.minimised.mol

>  <scratch_subdir>  (268) 
/opt/xchem-fragalysis-2/maxwin/BulkDock/SCRATCH/511023/C7728-P114

>  <fragmenstein_runtime>  (268) 
21.611566066741943

>  <fragmenstein_outcome>  (268) 
too moved

>  <fragmenstein_mode>  (268) 
expansion

>  <fragmenstein_error>  (268) 


$$$$
C7728-P49
     RDKit          3D

 38 39  0  0  0  0  0  0  0  0999 V2000
   -5.0774   -9.4339   23.8853 C   0  0  0  0  0  0  0  0  0  0  0  0
   -6.3126   -9.7378   23.0503 C   0  0  0  0  0  0  0  0  0  0  0  0
   -6.2150   -9.2313   21.5429 C   0  0  0  0  0  0  0  0  0  0  0  0
   -4.9935   -8.6111   20.9606 N   0  0  0  0  0  0  0  0  0  0  0  0
   -4.4085   -7.2976   21.1551 C   0  0  0  0  0  0  0  0  0  0  0  0
   -4.7179   -6.4105   21.8947 O   0  0  0  0  0  0  0  0  0  0  0  0
   -3.2013   -7.0310   20.2936 C   0  0  0  0  0  0  0  0  0  0  0  0
   -2.3972   -5.8855   20.3006 C   0  0  0  0  0  0  0  0  0  0  0  0
   -1.2576   -5.8880   19.5049 N   0  0  0  0  0  0  0  0  0  0  0  0
   -1.1744   -7.0513   18.9013 C   0  0  0  0  0  0  0  0  0  0  0  0
   -2.4982   -8.1262   19.1657 S   0  0  0  0  0  0  0  0  0  0  0  0
   -6.7061  -11.1778   23.2082 N   0  0  0  0  0  0  0  0  0  0  0  0
   -6.9429  -11.9863   24.4176 C   0  0  0  0  0  0  0  0  0  0  0  0
   -6.8029  -11.7144   25.5796 O   0  0  0  0  0  0  0  0  0  0  0  0
   -7.3427  -13.4546   24.0500 C   0  0  0  0  0  0  0  0  0  0  0  0
   -8.4081  -14.0794   24.9436 C   0  0  0  0  0  0  0  0  0  0  0  0
   -9.6971  -14.0921   24.6323 N   0  0  0  0  0  0  0  0  0  0  0  0
  -10.3492  -14.7131   25.6603 C   0  0  0  0  0  0  0  0  0  0  0  0
   -9.4551  -15.1651   26.5915 C   0  0  0  0  0  0  0  0  0  0  0  0
   -8.2203  -14.8090   26.1081 N   0  0  0  0  0  0  0  0  0  0  0  0
   -6.9970  -15.1864   26.7719 C   0  0  0  0  0  0  0  0  0  0  0  0
   -5.2744   -9.6060   24.9490 H   0  0  0  0  0  0  0  0  0  0  0  0
   -4.7650   -8.3918   23.7850 H   0  0  0  0  0  0  0  0  0  0  0  0
   -4.2493  -10.0869   23.6112 H   0  0  0  0  0  0  0  0  0  0  0  0
   -7.1509   -9.1948   23.5059 H   0  0  0  0  0  0  0  0  0  0  0  0
   -6.9873   -8.4601   21.4276 H   0  0  0  0  0  0  0  0  0  0  0  0
   -6.4946  -10.0449   20.8653 H   0  0  0  0  0  0  0  0  0  0  0  0
   -4.5236   -9.0714   20.1879 H   0  0  0  0  0  0  0  0  0  0  0  0
   -2.6014   -5.0120   20.9106 H   0  0  0  0  0  0  0  0  0  0  0  0
   -0.3384   -7.3307   18.2719 H   0  0  0  0  0  0  0  0  0  0  0  0
   -7.0105  -11.7005   22.3946 H   0  0  0  0  0  0  0  0  0  0  0  0
   -6.4285  -14.0571   24.0787 H   0  0  0  0  0  0  0  0  0  0  0  0
   -7.7158  -13.4899   23.0202 H   0  0  0  0  0  0  0  0  0  0  0  0
  -11.4269  -14.7861   25.6705 H   0  0  0  0  0  0  0  0  0  0  0  0
   -9.5785  -15.6965   27.5229 H   0  0  0  0  0  0  0  0  0  0  0  0
   -6.1714  -14.5814   26.3920 H   0  0  0  0  0  0  0  0  0  0  0  0
   -7.1088  -15.0130   27.8457 H   0  0  0  0  0  0  0  0  0  0  0  0
   -6.8117  -16.2444   26.5751 H   0  0  0  0  0  0  0  0  0  0  0  0
  1  2  1  0
  2  3  1  0
  3  4  1  0
  4  5  1  0
  5  6  2  0
  5  7  1  0
  7  8  2  0
  8  9  1  0
  9 10  2  0
 10 11  1  0
  2 12  1  0
 12 13  1  0
 13 14  2  0
 13 15  1  0
 15 16  1  0
 16 17  2  0
 17 18  1  0
 18 19  2  0
 19 20  1  0
 20 21  1  0
 11  7  1  0
 20 16  1  0
  1 22  1  0
  1 23  1  0
  1 24  1  0
  2 25  1  0
  3 26  1  0
  3 27  1  0
  4 28  1  0
  8 29  1  0
 10 30  1  0
 12 31  1  0
 15 32  1  0
 15 33  1  0
 18 34  1  0
 19 35  1  0
 21 36  1  0
 21 37  1  0
 21 38  1  0
M  END
>  <Energy>  (269) 
31.825153636421803

>  <compound_id>  (269) 
7728

>  <target_id>  (269) 
1

>  <reference_id>  (269) 
49

>  <inspiration_ids>  (269) 
[114, 49]

>  <energy_score>  (269) 
-54.32631639121462

>  <distance_score>  (269) 
13.075694611693699

>  <path>  (269) 
/opt/xchem-fragalysis-2/maxwin/BulkDock/SCRATCH/511023/C7728-P49/C7728-P49.minimised.mol

>  <scratch_subdir>  (269) 
/opt/xchem-fragalysis-2/maxwin/BulkDock/SCRATCH/511023/C7728-P49

>  <fragmenstein_runtime>  (269) 
36.4321665763855

>  <fragmenstein_outcome>  (269) 
too moved

>  <fragmenstein_mode>  (269) 
expansion

>  <fragmenstein_error>  (269) 


$$$$
C46406-P114
     RDKit          3D

 38 39  0  0  0  0  0  0  0  0999 V2000
   -2.3081  -15.8524   19.5492 C   0  0  0  0  0  0  0  0  0  0  0  0
   -2.4928  -16.8434   20.5205 C   0  0  0  0  0  0  0  0  0  0  0  0
   -0.4002  -16.8783   20.9757 C   0  0  0  0  0  0  0  0  0  0  0  0
    1.0586  -15.8022   20.2072 N   0  0  0  0  0  0  0  0  0  0  0  0
    2.5067  -14.7146   21.0091 C   0  0  0  0  0  0  0  0  0  0  0  0
    2.7089  -14.7071   22.3027 O   0  0  0  0  0  0  0  0  0  0  0  0
    3.6591  -13.4255   20.2329 C   0  0  0  0  0  0  0  0  0  0  0  0
    4.2069  -12.5883   21.1674 C   0  0  0  0  0  0  0  0  0  0  0  0
    5.3531  -12.0250   20.7670 O   0  0  0  0  0  0  0  0  0  0  0  0
    5.4130  -12.5082   19.5520 C   0  0  0  0  0  0  0  0  0  0  0  0
    4.4606  -13.3259   19.1438 N   0  0  0  0  0  0  0  0  0  0  0  0
   -3.9696  -16.7483   21.9081 N   0  0  0  0  0  0  0  0  0  0  0  0
   -5.6225  -17.7332   22.0591 C   0  0  0  0  0  0  0  0  0  0  0  0
   -6.1348  -18.5188   21.2509 O   0  0  0  0  0  0  0  0  0  0  0  0
   -6.4951  -17.5576   23.9391 C   0  0  0  0  0  0  0  0  0  0  0  0
   -6.1872  -18.5789   25.8998 C   0  0  0  0  0  0  0  0  0  0  0  0
   -6.0210  -17.6747   27.0455 N   0  0  0  0  0  0  0  0  0  0  0  0
   -4.7988  -17.8603   27.7851 C   0  0  0  0  0  0  0  0  0  0  0  0
   -4.1631  -19.0146   27.4050 C   0  0  0  0  0  0  0  0  0  0  0  0
   -5.0822  -19.7615   26.5755 N   0  0  0  0  0  0  0  0  0  0  0  0
   -4.4183  -20.8917   25.8833 C   0  0  0  0  0  0  0  0  0  0  0  0
   -2.4885  -15.0256   20.1835 H   0  0  0  0  0  0  0  0  0  0  0  0
   -1.3361  -15.5727   19.2632 H   0  0  0  0  0  0  0  0  0  0  0  0
   -2.7263  -16.3183   18.6619 H   0  0  0  0  0  0  0  0  0  0  0  0
   -2.6498  -17.8254   20.0587 H   0  0  0  0  0  0  0  0  0  0  0  0
   -0.1200  -17.7240   21.5882 H   0  0  0  0  0  0  0  0  0  0  0  0
   -0.2943  -17.5310   20.0873 H   0  0  0  0  0  0  0  0  0  0  0  0
    1.1281  -15.7450   19.1799 H   0  0  0  0  0  0  0  0  0  0  0  0
    3.7993  -12.3024   22.1337 H   0  0  0  0  0  0  0  0  0  0  0  0
    6.1611  -11.9991   19.0074 H   0  0  0  0  0  0  0  0  0  0  0  0
   -3.8324  -16.1680   22.7387 H   0  0  0  0  0  0  0  0  0  0  0  0
   -6.7825  -16.5096   24.2186 H   0  0  0  0  0  0  0  0  0  0  0  0
   -7.4322  -17.8930   23.3746 H   0  0  0  0  0  0  0  0  0  0  0  0
   -4.5149  -17.1513   28.5491 H   0  0  0  0  0  0  0  0  0  0  0  0
   -3.2225  -19.4517   27.7117 H   0  0  0  0  0  0  0  0  0  0  0  0
   -4.5302  -20.8146   24.8020 H   0  0  0  0  0  0  0  0  0  0  0  0
   -4.7878  -21.8290   26.3056 H   0  0  0  0  0  0  0  0  0  0  0  0
   -3.3416  -20.8511   26.0809 H   0  0  0  0  0  0  0  0  0  0  0  0
  1  2  1  0
  2  3  1  0
  3  4  1  0
  4  5  1  0
  5  6  2  0
  5  7  1  0
  7  8  2  0
  8  9  1  0
  9 10  1  0
 10 11  2  0
  2 12  1  0
 12 13  1  0
 13 14  2  0
 13 15  1  0
 15 16  1  0
 16 17  2  0
 17 18  1  0
 18 19  2  0
 19 20  1  0
 20 21  1  0
 11  7  1  0
 20 16  1  0
  1 22  1  0
  1 23  1  0
  1 24  1  0
  2 25  1  0
  3 26  1  0
  3 27  1  0
  4 28  1  0
  8 29  1  0
 10 30  1  0
 12 31  1  0
 15 32  1  0
 15 33  1  0
 18 34  1  0
 19 35  1  0
 21 36  1  0
 21 37  1  0
 21 38  1  0
M  END
>  <Energy>  (270) 
961.94432831585675

>  <compound_id>  (270) 
46406

>  <target_id>  (270) 
1

>  <reference_id>  (270) 
114

>  <inspiration_ids>  (270) 
[114, 49]

>  <energy_score>  (270) 
898.2743728850749

>  <distance_score>  (270) 
11.594896373032155

>  <path>  (270) 
/opt/xchem-fragalysis-2/maxwin/BulkDock/SCRATCH/511023/C46406-P114/C46406-P114.minimised.mol

>  <scratch_subdir>  (270) 
/opt/xchem-fragalysis-2/maxwin/BulkDock/SCRATCH/511023/C46406-P114

>  <fragmenstein_runtime>  (270) 
47.39991474151611

>  <fragmenstein_outcome>  (270) 
too moved

>  <fragmenstein_mode>  (270) 
expansion

>  <fragmenstein_error>  (270) 


$$$$
C46406-P49
     RDKit          3D

 38 39  0  0  0  0  0  0  0  0999 V2000
    0.5791  -15.5433   26.7728 C   0  0  0  0  0  0  0  0  0  0  0  0
    1.0499  -14.2652   27.4869 C   0  0  0  0  0  0  0  0  0  0  0  0
    2.0537  -13.0392   26.3214 C   0  0  0  0  0  0  0  0  0  0  0  0
    3.5224  -12.2857   25.5398 N   0  0  0  0  0  0  0  0  0  0  0  0
    4.3548  -10.8021   25.8783 C   0  0  0  0  0  0  0  0  0  0  0  0
    4.0621   -9.9561   26.6967 O   0  0  0  0  0  0  0  0  0  0  0  0
    5.6572  -10.2809   24.9776 C   0  0  0  0  0  0  0  0  0  0  0  0
    5.9750  -10.1181   23.6430 C   0  0  0  0  0  0  0  0  0  0  0  0
    7.0983   -9.3617   23.4648 O   0  0  0  0  0  0  0  0  0  0  0  0
    7.4203   -8.9856   24.7180 C   0  0  0  0  0  0  0  0  0  0  0  0
    6.6013   -9.4359   25.6362 N   0  0  0  0  0  0  0  0  0  0  0  0
    0.5244  -14.0411   29.0884 N   0  0  0  0  0  0  0  0  0  0  0  0
    0.7459  -14.8716   30.3228 C   0  0  0  0  0  0  0  0  0  0  0  0
    1.4200  -15.8580   30.4945 O   0  0  0  0  0  0  0  0  0  0  0  0
   -0.1392  -14.4221   31.5589 C   0  0  0  0  0  0  0  0  0  0  0  0
   -1.4644  -15.2081   31.8289 C   0  0  0  0  0  0  0  0  0  0  0  0
   -2.6642  -14.6306   31.7726 N   0  0  0  0  0  0  0  0  0  0  0  0
   -3.6081  -15.6027   32.0032 C   0  0  0  0  0  0  0  0  0  0  0  0
   -2.9968  -16.8014   32.2467 C   0  0  0  0  0  0  0  0  0  0  0  0
   -1.6484  -16.5544   32.1197 N   0  0  0  0  0  0  0  0  0  0  0  0
   -0.6619  -17.5979   32.1991 C   0  0  0  0  0  0  0  0  0  0  0  0
    0.4451  -16.1504   27.6274 H   0  0  0  0  0  0  0  0  0  0  0  0
   -0.4049  -15.8026   26.3170 H   0  0  0  0  0  0  0  0  0  0  0  0
    1.3752  -15.8188   26.1052 H   0  0  0  0  0  0  0  0  0  0  0  0
    1.8431  -14.7572   27.9603 H   0  0  0  0  0  0  0  0  0  0  0  0
    1.3251  -12.7697   25.5818 H   0  0  0  0  0  0  0  0  0  0  0  0
    2.6325  -13.9925   26.1735 H   0  0  0  0  0  0  0  0  0  0  0  0
    3.9512  -12.7412   24.7527 H   0  0  0  0  0  0  0  0  0  0  0  0
    5.5054  -10.3148   22.7135 H   0  0  0  0  0  0  0  0  0  0  0  0
    8.2885   -8.3541   24.8417 H   0  0  0  0  0  0  0  0  0  0  0  0
   -0.1721  -13.3317   29.2857 H   0  0  0  0  0  0  0  0  0  0  0  0
   -0.3902  -13.3616   31.4383 H   0  0  0  0  0  0  0  0  0  0  0  0
    0.4888  -14.4949   32.4551 H   0  0  0  0  0  0  0  0  0  0  0  0
   -4.6684  -15.3853   31.9854 H   0  0  0  0  0  0  0  0  0  0  0  0
   -3.3973  -17.7836   32.4576 H   0  0  0  0  0  0  0  0  0  0  0  0
   -1.0602  -18.4406   32.7703 H   0  0  0  0  0  0  0  0  0  0  0  0
   -0.4119  -17.9162   31.1843 H   0  0  0  0  0  0  0  0  0  0  0  0
    0.2236  -17.2070   32.7062 H   0  0  0  0  0  0  0  0  0  0  0  0
  1  2  1  0
  2  3  1  0
  3  4  1  0
  4  5  1  0
  5  6  2  0
  5  7  1  0
  7  8  2  0
  8  9  1  0
  9 10  1  0
 10 11  2  0
  2 12  1  0
 12 13  1  0
 13 14  2  0
 13 15  1  0
 15 16  1  0
 16 17  2  0
 17 18  1  0
 18 19  2  0
 19 20  1  0
 20 21  1  0
 11  7  1  0
 20 16  1  0
  1 22  1  0
  1 23  1  0
  1 24  1  0
  2 25  1  0
  3 26  1  0
  3 27  1  0
  4 28  1  0
  8 29  1  0
 10 30  1  0
 12 31  1  0
 15 32  1  0
 15 33  1  0
 18 34  1  0
 19 35  1  0
 21 36  1  0
 21 37  1  0
 21 38  1  0
M  END
>  <Energy>  (271) 
313.99682306979832

>  <compound_id>  (271) 
46406

>  <target_id>  (271) 
1

>  <reference_id>  (271) 
49

>  <inspiration_ids>  (271) 
[114, 49]

>  <energy_score>  (271) 
250.3268676390178

>  <distance_score>  (271) 
13.23618882522291

>  <path>  (271) 
/opt/xchem-fragalysis-2/maxwin/BulkDock/SCRATCH/511023/C46406-P49/C46406-P49.minimised.mol

>  <scratch_subdir>  (271) 
/opt/xchem-fragalysis-2/maxwin/BulkDock/SCRATCH/511023/C46406-P49

>  <fragmenstein_runtime>  (271) 
22.40778160095215

>  <fragmenstein_outcome>  (271) 
too moved

>  <fragmenstein_mode>  (271) 
expansion

>  <fragmenstein_error>  (271) 


$$$$
C46407-P114
     RDKit          3D

 38 39  0  0  0  0  0  0  0  0999 V2000
   -0.9299  -14.8269   22.6209 C   0  0  0  0  0  0  0  0  0  0  0  0
   -1.1820  -14.9093   24.3445 C   0  0  0  0  0  0  0  0  0  0  0  0
    0.5997  -14.0782   24.7568 C   0  0  0  0  0  0  0  0  0  0  0  0
    1.7444  -13.1809   23.9441 N   0  0  0  0  0  0  0  0  0  0  0  0
    3.0177  -13.4943   23.5549 C   0  0  0  0  0  0  0  0  0  0  0  0
    3.6754  -14.4547   23.7800 O   0  0  0  0  0  0  0  0  0  0  0  0
    3.6097  -12.3221   22.4642 C   0  0  0  0  0  0  0  0  0  0  0  0
    3.8058  -12.9749   21.1812 C   0  0  0  0  0  0  0  0  0  0  0  0
    4.8447  -12.7423   20.3516 N   0  0  0  0  0  0  0  0  0  0  0  0
    5.3501  -11.7332   20.9367 C   0  0  0  0  0  0  0  0  0  0  0  0
    4.6099  -11.2619   22.1905 O   0  0  0  0  0  0  0  0  0  0  0  0
   -2.3576  -16.2022   25.0807 N   0  0  0  0  0  0  0  0  0  0  0  0
   -2.0027  -17.7339   26.0424 C   0  0  0  0  0  0  0  0  0  0  0  0
   -0.8868  -18.1781   26.2591 O   0  0  0  0  0  0  0  0  0  0  0  0
   -3.1070  -18.6218   26.8584 C   0  0  0  0  0  0  0  0  0  0  0  0
   -3.2271  -20.1254   26.5898 C   0  0  0  0  0  0  0  0  0  0  0  0
   -3.7273  -20.6789   25.4947 N   0  0  0  0  0  0  0  0  0  0  0  0
   -3.8721  -22.0168   25.7420 C   0  0  0  0  0  0  0  0  0  0  0  0
   -3.4711  -22.3083   27.0163 C   0  0  0  0  0  0  0  0  0  0  0  0
   -3.0347  -21.1192   27.5407 N   0  0  0  0  0  0  0  0  0  0  0  0
   -2.4527  -21.0152   28.8578 C   0  0  0  0  0  0  0  0  0  0  0  0
   -0.3550  -15.6356   22.0665 H   0  0  0  0  0  0  0  0  0  0  0  0
   -1.7157  -14.7192   21.8333 H   0  0  0  0  0  0  0  0  0  0  0  0
   -0.2039  -14.0544   22.5641 H   0  0  0  0  0  0  0  0  0  0  0  0
   -1.6012  -14.1714   25.0745 H   0  0  0  0  0  0  0  0  0  0  0  0
    1.0047  -14.5683   23.9201 H   0  0  0  0  0  0  0  0  0  0  0  0
    0.9685  -13.7512   25.7825 H   0  0  0  0  0  0  0  0  0  0  0  0
    1.5294  -12.2053   23.6348 H   0  0  0  0  0  0  0  0  0  0  0  0
    3.1340  -13.7578   20.9477 H   0  0  0  0  0  0  0  0  0  0  0  0
    6.1631  -11.2094   20.5283 H   0  0  0  0  0  0  0  0  0  0  0  0
   -3.3502  -16.0974   24.9720 H   0  0  0  0  0  0  0  0  0  0  0  0
   -4.0080  -18.2072   27.3297 H   0  0  0  0  0  0  0  0  0  0  0  0
   -2.5454  -18.6039   27.8129 H   0  0  0  0  0  0  0  0  0  0  0  0
   -4.2561  -22.6940   24.9898 H   0  0  0  0  0  0  0  0  0  0  0  0
   -3.4191  -23.2387   27.5619 H   0  0  0  0  0  0  0  0  0  0  0  0
   -2.6700  -20.0478   29.3085 H   0  0  0  0  0  0  0  0  0  0  0  0
   -1.3711  -21.1355   28.7513 H   0  0  0  0  0  0  0  0  0  0  0  0
   -2.8502  -21.8080   29.4961 H   0  0  0  0  0  0  0  0  0  0  0  0
  1  2  1  0
  2  3  1  0
  3  4  1  0
  4  5  1  0
  5  6  2  0
  5  7  1  0
  7  8  2  0
  8  9  1  0
  9 10  2  0
 10 11  1  0
  2 12  1  0
 12 13  1  0
 13 14  2  0
 13 15  1  0
 15 16  1  0
 16 17  2  0
 17 18  1  0
 18 19  2  0
 19 20  1  0
 20 21  1  0
 11  7  1  0
 20 16  1  0
  1 22  1  0
  1 23  1  0
  1 24  1  0
  2 25  1  0
  3 26  1  0
  3 27  1  0
  4 28  1  0
  8 29  1  0
 10 30  1  0
 12 31  1  0
 15 32  1  0
 15 33  1  0
 18 34  1  0
 19 35  1  0
 21 36  1  0
 21 37  1  0
 21 38  1  0
M  END
>  <Energy>  (272) 
467.17466393635698

>  <compound_id>  (272) 
46407

>  <target_id>  (272) 
1

>  <reference_id>  (272) 
114

>  <inspiration_ids>  (272) 
[114, 49]

>  <energy_score>  (272) 
415.04982811654213

>  <distance_score>  (272) 
11.590658014454005

>  <path>  (272) 
/opt/xchem-fragalysis-2/maxwin/BulkDock/SCRATCH/511023/C46407-P114/C46407-P114.minimised.mol

>  <scratch_subdir>  (272) 
/opt/xchem-fragalysis-2/maxwin/BulkDock/SCRATCH/511023/C46407-P114

>  <fragmenstein_runtime>  (272) 
23.430715560913086

>  <fragmenstein_outcome>  (272) 
too moved

>  <fragmenstein_mode>  (272) 
expansion

>  <fragmenstein_error>  (272) 


$$$$
C46407-P49
     RDKit          3D

 38 39  0  0  0  0  0  0  0  0999 V2000
   -1.6601  -14.6900   26.4932 C   0  0  0  0  0  0  0  0  0  0  0  0
   -0.0668  -15.7636   26.3791 C   0  0  0  0  0  0  0  0  0  0  0  0
    1.7672  -14.8245   26.0837 C   0  0  0  0  0  0  0  0  0  0  0  0
    3.0476  -13.3565   26.1526 N   0  0  0  0  0  0  0  0  0  0  0  0
    3.7296  -12.3432   24.8690 C   0  0  0  0  0  0  0  0  0  0  0  0
    3.5374  -12.4909   23.6847 O   0  0  0  0  0  0  0  0  0  0  0  0
    4.8380  -10.9194   25.1295 C   0  0  0  0  0  0  0  0  0  0  0  0
    5.1906   -9.7453   25.8198 C   0  0  0  0  0  0  0  0  0  0  0  0
    6.1883   -8.9924   25.1980 N   0  0  0  0  0  0  0  0  0  0  0  0
    6.4823   -9.6888   24.1387 C   0  0  0  0  0  0  0  0  0  0  0  0
    5.7209  -10.7917   23.9734 O   0  0  0  0  0  0  0  0  0  0  0  0
   -1.2705  -16.9045   25.8856 N   0  0  0  0  0  0  0  0  0  0  0  0
   -1.6926  -18.3612   26.5188 C   0  0  0  0  0  0  0  0  0  0  0  0
   -1.1865  -19.0087   27.4408 O   0  0  0  0  0  0  0  0  0  0  0  0
   -2.9699  -18.9526   25.8769 C   0  0  0  0  0  0  0  0  0  0  0  0
   -3.0942  -20.3432   25.2817 C   0  0  0  0  0  0  0  0  0  0  0  0
   -2.6503  -20.6899   24.0812 N   0  0  0  0  0  0  0  0  0  0  0  0
   -3.3158  -21.8257   23.7218 C   0  0  0  0  0  0  0  0  0  0  0  0
   -4.1730  -22.1976   24.7171 C   0  0  0  0  0  0  0  0  0  0  0  0
   -3.9526  -21.3091   25.7249 N   0  0  0  0  0  0  0  0  0  0  0  0
   -4.5859  -21.3101   26.9984 C   0  0  0  0  0  0  0  0  0  0  0  0
   -2.1748  -13.9962   25.8121 H   0  0  0  0  0  0  0  0  0  0  0  0
   -2.5417  -15.3433   26.5968 H   0  0  0  0  0  0  0  0  0  0  0  0
   -1.4067  -13.8278   27.1126 H   0  0  0  0  0  0  0  0  0  0  0  0
    0.2591  -16.0732   27.3214 H   0  0  0  0  0  0  0  0  0  0  0  0
    1.6335  -14.6461   27.1309 H   0  0  0  0  0  0  0  0  0  0  0  0
    2.4706  -15.6102   25.8136 H   0  0  0  0  0  0  0  0  0  0  0  0
    3.4321  -13.0751   27.0294 H   0  0  0  0  0  0  0  0  0  0  0  0
    4.7656   -9.3269   26.6984 H   0  0  0  0  0  0  0  0  0  0  0  0
    7.2280   -9.4924   23.3817 H   0  0  0  0  0  0  0  0  0  0  0  0
   -1.9524  -16.6274   25.1893 H   0  0  0  0  0  0  0  0  0  0  0  0
   -3.7894  -18.7367   26.5604 H   0  0  0  0  0  0  0  0  0  0  0  0
   -3.0417  -18.4374   24.9529 H   0  0  0  0  0  0  0  0  0  0  0  0
   -3.1642  -22.2927   22.7574 H   0  0  0  0  0  0  0  0  0  0  0  0
   -4.8963  -22.9941   24.7601 H   0  0  0  0  0  0  0  0  0  0  0  0
   -4.6791  -20.2830   27.3333 H   0  0  0  0  0  0  0  0  0  0  0  0
   -5.5854  -21.7221   26.9191 H   0  0  0  0  0  0  0  0  0  0  0  0
   -3.9429  -21.8707   27.6778 H   0  0  0  0  0  0  0  0  0  0  0  0
  1  2  1  0
  2  3  1  0
  3  4  1  0
  4  5  1  0
  5  6  2  0
  5  7  1  0
  7  8  2  0
  8  9  1  0
  9 10  2  0
 10 11  1  0
  2 12  1  0
 12 13  1  0
 13 14  2  0
 13 15  1  0
 15 16  1  0
 16 17  2  0
 17 18  1  0
 18 19  2  0
 19 20  1  0
 20 21  1  0
 11  7  1  0
 20 16  1  0
  1 22  1  0
  1 23  1  0
  1 24  1  0
  2 25  1  0
  3 26  1  0
  3 27  1  0
  4 28  1  0
  8 29  1  0
 10 30  1  0
 12 31  1  0
 15 32  1  0
 15 33  1  0
 18 34  1  0
 19 35  1  0
 21 36  1  0
 21 37  1  0
 21 38  1  0
M  END
>  <Energy>  (273) 
491.87864236676035

>  <compound_id>  (273) 
46407

>  <target_id>  (273) 
1

>  <reference_id>  (273) 
49

>  <inspiration_ids>  (273) 
[114, 49]

>  <energy_score>  (273) 
439.75380654694516

>  <distance_score>  (273) 
11.613677688044168

>  <path>  (273) 
/opt/xchem-fragalysis-2/maxwin/BulkDock/SCRATCH/511023/C46407-P49/C46407-P49.minimised.mol

>  <scratch_subdir>  (273) 
/opt/xchem-fragalysis-2/maxwin/BulkDock/SCRATCH/511023/C46407-P49

>  <fragmenstein_runtime>  (273) 
15.653201580047607

>  <fragmenstein_outcome>  (273) 
too moved

>  <fragmenstein_mode>  (273) 
expansion

>  <fragmenstein_error>  (273) 


$$$$
C8991-P114
     RDKit          3D

 42 44  0  0  0  0  0  0  0  0999 V2000
   -1.1128   -9.4934   22.5223 C   0  0  0  0  0  0  0  0  0  0  0  0
   -0.0439  -11.0760   22.3007 C   0  0  0  0  0  0  0  0  0  0  0  0
    0.7210   -9.6281   21.1063 C   0  0  0  0  0  0  0  0  0  0  0  0
    1.3482   -8.9574   19.5768 N   0  0  0  0  0  0  0  0  0  0  0  0
    0.7375   -8.0555   18.5992 C   0  0  0  0  0  0  0  0  0  0  0  0
   -0.3708   -7.6049   18.5389 O   0  0  0  0  0  0  0  0  0  0  0  0
    1.7399   -7.5328   17.5462 C   0  0  0  0  0  0  0  0  0  0  0  0
    3.0120   -7.9968   17.2135 C   0  0  0  0  0  0  0  0  0  0  0  0
    3.8930   -6.8859   16.2354 S   0  0  0  0  0  0  0  0  0  0  0  0
    2.5363   -5.8518   16.2521 C   0  0  0  0  0  0  0  0  0  0  0  0
    1.5000   -6.2716   16.9441 N   0  0  0  0  0  0  0  0  0  0  0  0
   -0.2587  -13.1148   22.8251 N   0  0  0  0  0  0  0  0  0  0  0  0
   -1.0140  -13.9640   24.4172 C   0  0  0  0  0  0  0  0  0  0  0  0
   -1.3398  -13.3094   25.4118 O   0  0  0  0  0  0  0  0  0  0  0  0
   -1.6396  -15.7411   24.6240 C   0  0  0  0  0  0  0  0  0  0  0  0
   -2.2140  -17.2713   25.8904 C   0  0  0  0  0  0  0  0  0  0  0  0
   -2.4445  -16.9844   27.2247 N   0  0  0  0  0  0  0  0  0  0  0  0
   -2.6942  -18.1119   27.9559 C   0  0  0  0  0  0  0  0  0  0  0  0
   -2.4250  -19.1976   27.1904 C   0  0  0  0  0  0  0  0  0  0  0  0
   -1.9392  -18.6824   26.0083 N   0  0  0  0  0  0  0  0  0  0  0  0
   -1.4487  -11.3461   20.9286 C   0  0  0  0  0  0  0  0  0  0  0  0
   -2.8895  -10.8279   20.8450 C   0  0  0  0  0  0  0  0  0  0  0  0
   -1.9870  -10.3907   19.7908 C   0  0  0  0  0  0  0  0  0  0  0  0
   -1.5644   -9.0579   21.6357 H   0  0  0  0  0  0  0  0  0  0  0  0
   -0.4456   -8.6659   22.8394 H   0  0  0  0  0  0  0  0  0  0  0  0
   -2.0420   -9.3848   23.1042 H   0  0  0  0  0  0  0  0  0  0  0  0
    1.1895   -8.8847   21.7535 H   0  0  0  0  0  0  0  0  0  0  0  0
   -0.1496   -9.0669   20.8230 H   0  0  0  0  0  0  0  0  0  0  0  0
    2.2629   -9.1944   19.2720 H   0  0  0  0  0  0  0  0  0  0  0  0
    3.4872   -8.9286   17.4820 H   0  0  0  0  0  0  0  0  0  0  0  0
    2.5305   -4.9058   15.7263 H   0  0  0  0  0  0  0  0  0  0  0  0
    0.0116  -13.8309   22.1699 H   0  0  0  0  0  0  0  0  0  0  0  0
   -2.2871  -15.2004   25.3867 H   0  0  0  0  0  0  0  0  0  0  0  0
   -2.5963  -15.6201   24.0670 H   0  0  0  0  0  0  0  0  0  0  0  0
   -3.0180  -18.0540   28.9862 H   0  0  0  0  0  0  0  0  0  0  0  0
   -2.4461  -20.2596   27.3848 H   0  0  0  0  0  0  0  0  0  0  0  0
   -1.5556  -19.3288   25.3422 H   0  0  0  0  0  0  0  0  0  0  0  0
   -1.5135  -12.3718   20.6028 H   0  0  0  0  0  0  0  0  0  0  0  0
   -3.2566  -10.1316   21.5761 H   0  0  0  0  0  0  0  0  0  0  0  0
   -3.6813  -11.4544   20.4447 H   0  0  0  0  0  0  0  0  0  0  0  0
   -2.1251  -10.8296   18.8043 H   0  0  0  0  0  0  0  0  0  0  0  0
   -1.8342   -9.3238   19.7140 H   0  0  0  0  0  0  0  0  0  0  0  0
  1  2  1  0
  2  3  1  0
  3  4  1  0
  4  5  1  0
  5  6  2  0
  5  7  1  0
  7  8  2  0
  8  9  1  0
  9 10  1  0
 10 11  2  0
  2 12  1  0
 12 13  1  0
 13 14  2  0
 13 15  1  0
 15 16  1  0
 16 17  2  0
 17 18  1  0
 18 19  2  0
 19 20  1  0
  2 21  1  0
 21 22  1  0
 22 23  1  0
 11  7  1  0
 20 16  1  0
 23 21  1  0
  1 24  1  0
  1 25  1  0
  1 26  1  0
  3 27  1  0
  3 28  1  0
  4 29  1  0
  8 30  1  0
 10 31  1  0
 12 32  1  0
 15 33  1  0
 15 34  1  0
 18 35  1  0
 19 36  1  0
 20 37  1  0
 21 38  1  0
 22 39  1  0
 22 40  1  0
 23 41  1  0
 23 42  1  0
M  END
>  <Energy>  (274) 
885.79073533034261

>  <compound_id>  (274) 
8991

>  <target_id>  (274) 
1

>  <reference_id>  (274) 
114

>  <inspiration_ids>  (274) 
[114, 49]

>  <energy_score>  (274) 
731.2705677453937

>  <distance_score>  (274) 
11.896698791410342

>  <path>  (274) 
/opt/xchem-fragalysis-2/maxwin/BulkDock/SCRATCH/511023/C8991-P114/C8991-P114.minimised.mol

>  <scratch_subdir>  (274) 
/opt/xchem-fragalysis-2/maxwin/BulkDock/SCRATCH/511023/C8991-P114

>  <fragmenstein_runtime>  (274) 
32.79016971588135

>  <fragmenstein_outcome>  (274) 
too moved

>  <fragmenstein_mode>  (274) 
expansion

>  <fragmenstein_error>  (274) 


$$$$
C8991-P49
     RDKit          3D

 42 44  0  0  0  0  0  0  0  0999 V2000
   -3.4450  -14.1255   22.9360 C   0  0  0  0  0  0  0  0  0  0  0  0
   -1.9226  -14.1011   22.9817 C   0  0  0  0  0  0  0  0  0  0  0  0
   -0.4465  -12.7333   23.1907 C   0  0  0  0  0  0  0  0  0  0  0  0
    1.2028  -11.7927   23.9170 N   0  0  0  0  0  0  0  0  0  0  0  0
    3.1000  -12.0760   23.5460 C   0  0  0  0  0  0  0  0  0  0  0  0
    3.4243  -12.8680   22.7029 O   0  0  0  0  0  0  0  0  0  0  0  0
    4.6643  -11.1804   24.1946 C   0  0  0  0  0  0  0  0  0  0  0  0
    5.0274  -10.4057   25.3571 C   0  0  0  0  0  0  0  0  0  0  0  0
    6.3309   -9.2579   25.1259 S   0  0  0  0  0  0  0  0  0  0  0  0
    6.5705   -9.8757   23.5784 C   0  0  0  0  0  0  0  0  0  0  0  0
    5.6594  -10.7390   23.2067 N   0  0  0  0  0  0  0  0  0  0  0  0
   -2.2308  -15.5949   24.2684 N   0  0  0  0  0  0  0  0  0  0  0  0
   -2.3816  -15.6058   25.6390 C   0  0  0  0  0  0  0  0  0  0  0  0
   -2.4585  -14.7158   26.4089 O   0  0  0  0  0  0  0  0  0  0  0  0
   -2.3055  -17.1742   26.0394 C   0  0  0  0  0  0  0  0  0  0  0  0
   -2.8627  -18.6780   26.2027 C   0  0  0  0  0  0  0  0  0  0  0  0
   -2.6220  -19.4571   27.2579 N   0  0  0  0  0  0  0  0  0  0  0  0
   -3.2269  -20.6647   27.0285 C   0  0  0  0  0  0  0  0  0  0  0  0
   -3.8132  -20.6732   25.7950 C   0  0  0  0  0  0  0  0  0  0  0  0
   -3.6061  -19.4148   25.2992 N   0  0  0  0  0  0  0  0  0  0  0  0
   -1.4069  -14.0847   20.9897 C   0  0  0  0  0  0  0  0  0  0  0  0
   -0.7645  -15.4557   19.9841 C   0  0  0  0  0  0  0  0  0  0  0  0
   -2.1005  -15.0863   19.3971 C   0  0  0  0  0  0  0  0  0  0  0  0
   -3.7964  -14.7577   22.1838 H   0  0  0  0  0  0  0  0  0  0  0  0
   -3.8336  -14.4470   23.8542 H   0  0  0  0  0  0  0  0  0  0  0  0
   -4.1877  -13.5068   22.5126 H   0  0  0  0  0  0  0  0  0  0  0  0
   -0.2130  -12.6206   22.2077 H   0  0  0  0  0  0  0  0  0  0  0  0
   -1.3359  -12.2836   23.7055 H   0  0  0  0  0  0  0  0  0  0  0  0
    1.1081  -11.0435   24.5836 H   0  0  0  0  0  0  0  0  0  0  0  0
    4.5051  -10.3654   26.3028 H   0  0  0  0  0  0  0  0  0  0  0  0
    7.3722   -9.5616   22.9225 H   0  0  0  0  0  0  0  0  0  0  0  0
   -2.2828  -16.4799   23.9548 H   0  0  0  0  0  0  0  0  0  0  0  0
   -3.0588  -16.9167   26.7116 H   0  0  0  0  0  0  0  0  0  0  0  0
   -1.2855  -17.2197   26.3646 H   0  0  0  0  0  0  0  0  0  0  0  0
   -3.1777  -21.4641   27.7549 H   0  0  0  0  0  0  0  0  0  0  0  0
   -4.3614  -21.4296   25.2524 H   0  0  0  0  0  0  0  0  0  0  0  0
   -4.0062  -19.0333   24.4587 H   0  0  0  0  0  0  0  0  0  0  0  0
   -0.7606  -13.2664   20.8500 H   0  0  0  0  0  0  0  0  0  0  0  0
   -0.6713  -16.4216   20.4330 H   0  0  0  0  0  0  0  0  0  0  0  0
    0.0554  -15.3111   19.3060 H   0  0  0  0  0  0  0  0  0  0  0  0
   -2.8471  -15.8974   19.3844 H   0  0  0  0  0  0  0  0  0  0  0  0
   -2.2060  -14.6874   18.3960 H   0  0  0  0  0  0  0  0  0  0  0  0
  1  2  1  0
  2  3  1  0
  3  4  1  0
  4  5  1  0
  5  6  2  0
  5  7  1  0
  7  8  2  0
  8  9  1  0
  9 10  1  0
 10 11  2  0
  2 12  1  0
 12 13  1  0
 13 14  2  0
 13 15  1  0
 15 16  1  0
 16 17  2  0
 17 18  1  0
 18 19  2  0
 19 20  1  0
  2 21  1  0
 21 22  1  0
 22 23  1  0
 11  7  1  0
 20 16  1  0
 23 21  1  0
  1 24  1  0
  1 25  1  0
  1 26  1  0
  3 27  1  0
  3 28  1  0
  4 29  1  0
  8 30  1  0
 10 31  1  0
 12 32  1  0
 15 33  1  0
 15 34  1  0
 18 35  1  0
 19 36  1  0
 20 37  1  0
 21 38  1  0
 22 39  1  0
 22 40  1  0
 23 41  1  0
 23 42  1  0
M  END
>  <Energy>  (275) 
841.82876318385456

>  <compound_id>  (275) 
8991

>  <target_id>  (275) 
1

>  <reference_id>  (275) 
49

>  <inspiration_ids>  (275) 
[114, 49]

>  <energy_score>  (275) 
687.3085955989151

>  <distance_score>  (275) 
12.240835392642968

>  <path>  (275) 
/opt/xchem-fragalysis-2/maxwin/BulkDock/SCRATCH/511023/C8991-P49/C8991-P49.minimised.mol

>  <scratch_subdir>  (275) 
/opt/xchem-fragalysis-2/maxwin/BulkDock/SCRATCH/511023/C8991-P49

>  <fragmenstein_runtime>  (275) 
30.277162075042725

>  <fragmenstein_outcome>  (275) 
too moved

>  <fragmenstein_mode>  (275) 
expansion

>  <fragmenstein_error>  (275) 


$$$$
C11946-P114
     RDKit          3D

 37 38  0  0  0  0  0  0  0  0999 V2000
    4.6278  -18.4901   19.4580 C   0  0  0  0  0  0  0  0  0  0  0  0
    3.2345  -17.9882   19.4779 C   0  0  0  0  0  0  0  0  0  0  0  0
    2.2363  -18.6032   20.1921 N   0  0  0  0  0  0  0  0  0  0  0  0
    1.0792  -17.9108   19.9928 C   0  0  0  0  0  0  0  0  0  0  0  0
    1.2824  -16.8907   19.1897 N   0  0  0  0  0  0  0  0  0  0  0  0
    2.6536  -16.8818   18.8823 C   0  0  0  0  0  0  0  0  0  0  0  0
    3.2339  -15.7793   17.9549 C   0  0  0  0  0  0  0  0  0  0  0  0
    4.6960  -15.0984   18.2524 C   0  0  0  0  0  0  0  0  0  0  0  0
    5.6899  -15.7914   18.1401 O   0  0  0  0  0  0  0  0  0  0  0  0
    4.5399  -13.5615   18.7742 N   0  0  0  0  0  0  0  0  0  0  0  0
    5.6391  -12.5416   19.3983 C   0  0  0  0  0  0  0  0  0  0  0  0
    6.6326  -11.1379   18.4480 C   0  0  0  0  0  0  0  0  0  0  0  0
    7.2143  -10.9285   19.6548 C   0  0  0  0  0  0  0  0  0  0  0  0
    8.3496  -10.6105   17.4842 C   0  0  0  0  0  0  0  0  0  0  0  0
    9.5082  -10.2630   18.1354 C   0  0  0  0  0  0  0  0  0  0  0  0
   10.8550  -10.3676   17.6914 C   0  0  0  0  0  0  0  0  0  0  0  0
   11.2015  -10.6615   16.4452 N   0  0  0  0  0  0  0  0  0  0  0  0
   10.1584  -10.7633   15.6361 C   0  0  0  0  0  0  0  0  0  0  0  0
    8.8239  -10.6777   16.0700 C   0  0  0  0  0  0  0  0  0  0  0  0
    5.2686  -17.8661   20.0884 H   0  0  0  0  0  0  0  0  0  0  0  0
    4.6868  -19.5186   19.8291 H   0  0  0  0  0  0  0  0  0  0  0  0
    5.0259  -18.4822   18.4386 H   0  0  0  0  0  0  0  0  0  0  0  0
    2.3370  -19.4302   20.7623 H   0  0  0  0  0  0  0  0  0  0  0  0
    0.1373  -18.1947   20.4407 H   0  0  0  0  0  0  0  0  0  0  0  0
    2.4572  -15.0176   17.9870 H   0  0  0  0  0  0  0  0  0  0  0  0
    3.2778  -16.1804   16.9357 H   0  0  0  0  0  0  0  0  0  0  0  0
    3.6194  -13.2724   18.6675 H   0  0  0  0  0  0  0  0  0  0  0  0
    5.0702  -12.1109   20.2181 H   0  0  0  0  0  0  0  0  0  0  0  0
    6.2618  -13.2137   19.9983 H   0  0  0  0  0  0  0  0  0  0  0  0
    5.8247  -10.4363   18.4433 H   0  0  0  0  0  0  0  0  0  0  0  0
    7.9698  -11.6273   19.7892 H   0  0  0  0  0  0  0  0  0  0  0  0
    7.7305  -10.0538   19.5350 H   0  0  0  0  0  0  0  0  0  0  0  0
    6.4579  -11.0093   20.4143 H   0  0  0  0  0  0  0  0  0  0  0  0
    9.3164   -9.4449   18.8004 H   0  0  0  0  0  0  0  0  0  0  0  0
   11.6756  -10.0863   18.3446 H   0  0  0  0  0  0  0  0  0  0  0  0
   10.3823  -10.9495   14.5910 H   0  0  0  0  0  0  0  0  0  0  0  0
    8.1790  -10.7016   15.1898 H   0  0  0  0  0  0  0  0  0  0  0  0
  1  2  1  0
  2  3  1  0
  3  4  1  0
  4  5  2  0
  5  6  1  0
  6  7  1  0
  7  8  1  0
  8  9  2  0
  8 10  1  0
 10 11  1  0
 11 12  1  0
 12 13  1  0
 12 14  1  0
 14 15  2  0
 15 16  1  0
 16 17  2  0
 17 18  1  0
 18 19  2  0
  6  2  2  0
 19 14  1  0
  1 20  1  0
  1 21  1  0
  1 22  1  0
  3 23  1  0
  4 24  1  0
  7 25  1  0
  7 26  1  0
 10 27  1  0
 11 28  1  0
 11 29  1  0
 12 30  1  0
 13 31  1  0
 13 32  1  0
 13 33  1  0
 15 34  1  0
 16 35  1  0
 18 36  1  0
 19 37  1  0
M  END
>  <Energy>  (276) 
340.55433992950191

>  <compound_id>  (276) 
11946

>  <target_id>  (276) 
1

>  <reference_id>  (276) 
114

>  <inspiration_ids>  (276) 
[114, 49]

>  <energy_score>  (276) 
281.607509968661

>  <distance_score>  (276) 
15.782151878253657

>  <path>  (276) 
/opt/xchem-fragalysis-2/maxwin/BulkDock/SCRATCH/511023/C11946-P114/C11946-P114.minimised.mol

>  <scratch_subdir>  (276) 
/opt/xchem-fragalysis-2/maxwin/BulkDock/SCRATCH/511023/C11946-P114

>  <fragmenstein_runtime>  (276) 
29.180277824401855

>  <fragmenstein_outcome>  (276) 
too moved

>  <fragmenstein_mode>  (276) 
expansion

>  <fragmenstein_error>  (276) 


$$$$
C11946-P49
     RDKit          3D

 37 38  0  0  0  0  0  0  0  0999 V2000
   -2.3748  -16.9993   25.1824 C   0  0  0  0  0  0  0  0  0  0  0  0
   -3.2179  -16.9845   23.9675 C   0  0  0  0  0  0  0  0  0  0  0  0
   -3.9445  -18.0876   23.5870 N   0  0  0  0  0  0  0  0  0  0  0  0
   -4.7368  -17.7302   22.5420 C   0  0  0  0  0  0  0  0  0  0  0  0
   -4.4974  -16.4947   22.1772 N   0  0  0  0  0  0  0  0  0  0  0  0
   -3.4959  -16.0175   23.0077 C   0  0  0  0  0  0  0  0  0  0  0  0
   -3.1099  -14.5523   22.9032 C   0  0  0  0  0  0  0  0  0  0  0  0
   -1.8209  -14.0736   21.9558 C   0  0  0  0  0  0  0  0  0  0  0  0
   -1.5926  -14.6339   20.8914 O   0  0  0  0  0  0  0  0  0  0  0  0
   -0.8939  -12.8021   22.8214 N   0  0  0  0  0  0  0  0  0  0  0  0
    0.8587  -11.8733   22.4159 C   0  0  0  0  0  0  0  0  0  0  0  0
    2.4584  -11.0916   21.3279 C   0  0  0  0  0  0  0  0  0  0  0  0
    2.9269  -12.4169   22.0935 C   0  0  0  0  0  0  0  0  0  0  0  0
    3.9125   -9.7362   20.6494 C   0  0  0  0  0  0  0  0  0  0  0  0
    5.4483   -9.8566   21.6359 C   0  0  0  0  0  0  0  0  0  0  0  0
    6.6242   -9.4350   22.5807 C   0  0  0  0  0  0  0  0  0  0  0  0
    6.7310   -8.1893   22.8962 N   0  0  0  0  0  0  0  0  0  0  0  0
    5.7026   -7.7199   22.2584 C   0  0  0  0  0  0  0  0  0  0  0  0
    4.5178   -8.6673   21.2493 C   0  0  0  0  0  0  0  0  0  0  0  0
   -2.5926  -17.8710   25.8089 H   0  0  0  0  0  0  0  0  0  0  0  0
   -2.5594  -16.1089   25.7905 H   0  0  0  0  0  0  0  0  0  0  0  0
   -1.3146  -17.0373   24.9187 H   0  0  0  0  0  0  0  0  0  0  0  0
   -3.9568  -18.9877   24.0446 H   0  0  0  0  0  0  0  0  0  0  0  0
   -5.4589  -18.3967   22.0875 H   0  0  0  0  0  0  0  0  0  0  0  0
   -4.0116  -14.1235   22.4391 H   0  0  0  0  0  0  0  0  0  0  0  0
   -3.0489  -14.1090   23.8994 H   0  0  0  0  0  0  0  0  0  0  0  0
   -1.3973  -12.4942   23.6347 H   0  0  0  0  0  0  0  0  0  0  0  0
    1.0746  -11.5091   23.4523 H   0  0  0  0  0  0  0  0  0  0  0  0
    0.8818  -12.9677   22.0222 H   0  0  0  0  0  0  0  0  0  0  0  0
    1.6999  -10.3239   21.3593 H   0  0  0  0  0  0  0  0  0  0  0  0
    3.0847  -12.1830   23.1488 H   0  0  0  0  0  0  0  0  0  0  0  0
    3.7972  -13.1219   22.1324 H   0  0  0  0  0  0  0  0  0  0  0  0
    2.4803  -13.2199   21.5665 H   0  0  0  0  0  0  0  0  0  0  0  0
    6.2455  -10.1453   20.8802 H   0  0  0  0  0  0  0  0  0  0  0  0
    7.4426  -10.1188   22.7856 H   0  0  0  0  0  0  0  0  0  0  0  0
    5.4425   -6.6723   22.4238 H   0  0  0  0  0  0  0  0  0  0  0  0
    3.6822   -7.9949   21.0221 H   0  0  0  0  0  0  0  0  0  0  0  0
  1  2  1  0
  2  3  1  0
  3  4  1  0
  4  5  2  0
  5  6  1  0
  6  7  1  0
  7  8  1  0
  8  9  2  0
  8 10  1  0
 10 11  1  0
 11 12  1  0
 12 13  1  0
 12 14  1  0
 14 15  2  0
 15 16  1  0
 16 17  2  0
 17 18  1  0
 18 19  2  0
  6  2  2  0
 19 14  1  0
  1 20  1  0
  1 21  1  0
  1 22  1  0
  3 23  1  0
  4 24  1  0
  7 25  1  0
  7 26  1  0
 10 27  1  0
 11 28  1  0
 11 29  1  0
 12 30  1  0
 13 31  1  0
 13 32  1  0
 13 33  1  0
 15 34  1  0
 16 35  1  0
 18 36  1  0
 19 37  1  0
M  END
>  <Energy>  (277) 
869.54901140074537

>  <compound_id>  (277) 
11946

>  <target_id>  (277) 
1

>  <reference_id>  (277) 
49

>  <inspiration_ids>  (277) 
[114, 49]

>  <energy_score>  (277) 
810.6021814399093

>  <distance_score>  (277) 
12.859186336563436

>  <path>  (277) 
/opt/xchem-fragalysis-2/maxwin/BulkDock/SCRATCH/511023/C11946-P49/C11946-P49.minimised.mol

>  <scratch_subdir>  (277) 
/opt/xchem-fragalysis-2/maxwin/BulkDock/SCRATCH/511023/C11946-P49

>  <fragmenstein_runtime>  (277) 
17.779304027557373

>  <fragmenstein_outcome>  (277) 
too moved

>  <fragmenstein_mode>  (277) 
expansion

>  <fragmenstein_error>  (277) 


$$$$
C11947-P114
     RDKit          3D

 37 38  0  0  0  0  0  0  0  0999 V2000
    1.1826  -20.7866   18.1744 C   0  0  0  0  0  0  0  0  0  0  0  0
    1.4552  -19.2977   18.0295 C   0  0  0  0  0  0  0  0  0  0  0  0
    1.7022  -18.5422   19.3595 C   0  0  0  0  0  0  0  0  0  0  0  0
    0.3946  -18.6284   20.2481 N   0  0  0  0  0  0  0  0  0  0  0  0
   -0.2645  -19.8904   21.0278 C   0  0  0  0  0  0  0  0  0  0  0  0
    0.1338  -21.0002   21.1638 O   0  0  0  0  0  0  0  0  0  0  0  0
   -1.6866  -19.5007   21.7473 C   0  0  0  0  0  0  0  0  0  0  0  0
   -2.7525  -20.6590   22.2185 C   0  0  0  0  0  0  0  0  0  0  0  0
   -2.6043  -22.0206   22.4358 C   0  0  0  0  0  0  0  0  0  0  0  0
   -3.8641  -22.5491   22.4246 N   0  0  0  0  0  0  0  0  0  0  0  0
   -4.7460  -21.5142   22.2718 C   0  0  0  0  0  0  0  0  0  0  0  0
   -6.1722  -21.7352   21.9305 C   0  0  0  0  0  0  0  0  0  0  0  0
   -4.1176  -20.3618   22.3742 N   0  0  0  0  0  0  0  0  0  0  0  0
    2.3646  -17.1361   18.9377 C   0  0  0  0  0  0  0  0  0  0  0  0
    3.7137  -16.9469   18.4075 C   0  0  0  0  0  0  0  0  0  0  0  0
    4.2128  -15.6975   17.9900 C   0  0  0  0  0  0  0  0  0  0  0  0
    3.4870  -14.5810   18.1442 N   0  0  0  0  0  0  0  0  0  0  0  0
    2.1782  -14.8182   18.4335 C   0  0  0  0  0  0  0  0  0  0  0  0
    1.6122  -15.9852   18.8667 C   0  0  0  0  0  0  0  0  0  0  0  0
    0.1760  -20.9727   18.5560 H   0  0  0  0  0  0  0  0  0  0  0  0
    1.9127  -21.2640   18.8347 H   0  0  0  0  0  0  0  0  0  0  0  0
    1.2451  -21.2733   17.1952 H   0  0  0  0  0  0  0  0  0  0  0  0
    2.3344  -19.1989   17.3801 H   0  0  0  0  0  0  0  0  0  0  0  0
    0.6194  -18.8341   17.4897 H   0  0  0  0  0  0  0  0  0  0  0  0
    2.4583  -19.0754   19.9485 H   0  0  0  0  0  0  0  0  0  0  0  0
   -0.2488  -17.8486   20.2577 H   0  0  0  0  0  0  0  0  0  0  0  0
   -1.4397  -18.9283   22.6486 H   0  0  0  0  0  0  0  0  0  0  0  0
   -2.2340  -18.8548   21.0511 H   0  0  0  0  0  0  0  0  0  0  0  0
   -1.7243  -22.6496   22.4336 H   0  0  0  0  0  0  0  0  0  0  0  0
   -4.1001  -23.5319   22.4210 H   0  0  0  0  0  0  0  0  0  0  0  0
   -6.7771  -20.8675   22.2070 H   0  0  0  0  0  0  0  0  0  0  0  0
   -6.5733  -22.6223   22.4292 H   0  0  0  0  0  0  0  0  0  0  0  0
   -6.2752  -21.8817   20.8504 H   0  0  0  0  0  0  0  0  0  0  0  0
    4.3632  -17.8160   18.3280 H   0  0  0  0  0  0  0  0  0  0  0  0
    5.1925  -15.6370   17.5677 H   0  0  0  0  0  0  0  0  0  0  0  0
    1.4417  -14.0551   18.2518 H   0  0  0  0  0  0  0  0  0  0  0  0
    0.5520  -16.0107   19.0935 H   0  0  0  0  0  0  0  0  0  0  0  0
  1  2  1  0
  2  3  1  0
  3  4  1  0
  4  5  1  0
  5  6  2  0
  5  7  1  0
  7  8  1  0
  8  9  2  0
  9 10  1  0
 10 11  1  0
 11 12  1  0
 11 13  2  0
  3 14  1  0
 14 15  2  0
 15 16  1  0
 16 17  2  0
 17 18  1  0
 18 19  2  0
 13  8  1  0
 19 14  1  0
  1 20  1  0
  1 21  1  0
  1 22  1  0
  2 23  1  0
  2 24  1  0
  3 25  1  0
  4 26  1  0
  7 27  1  0
  7 28  1  0
  9 29  1  0
 10 30  1  0
 12 31  1  0
 12 32  1  0
 12 33  1  0
 15 34  1  0
 16 35  1  0
 18 36  1  0
 19 37  1  0
M  END
>  <Energy>  (278) 
81.229689624600809

>  <compound_id>  (278) 
11947

>  <target_id>  (278) 
1

>  <reference_id>  (278) 
114

>  <inspiration_ids>  (278) 
[114, 49]

>  <energy_score>  (278) 
37.967231492000906

>  <distance_score>  (278) 
14.906439793476276

>  <path>  (278) 
/opt/xchem-fragalysis-2/maxwin/BulkDock/SCRATCH/511023/C11947-P114/C11947-P114.minimised.mol

>  <scratch_subdir>  (278) 
/opt/xchem-fragalysis-2/maxwin/BulkDock/SCRATCH/511023/C11947-P114

>  <fragmenstein_runtime>  (278) 
17.049391984939575

>  <fragmenstein_outcome>  (278) 
too moved

>  <fragmenstein_mode>  (278) 
expansion

>  <fragmenstein_error>  (278) 


$$$$
C11947-P49
     RDKit          3D

 37 38  0  0  0  0  0  0  0  0999 V2000
    3.9416  -17.8445   22.1383 C   0  0  0  0  0  0  0  0  0  0  0  0
    2.5231  -17.3016   22.2521 C   0  0  0  0  0  0  0  0  0  0  0  0
    2.2854  -16.4845   23.5395 C   0  0  0  0  0  0  0  0  0  0  0  0
    0.8362  -16.6993   23.9668 N   0  0  0  0  0  0  0  0  0  0  0  0
    0.0410  -18.0534   24.3023 C   0  0  0  0  0  0  0  0  0  0  0  0
    0.4260  -19.1690   24.3667 O   0  0  0  0  0  0  0  0  0  0  0  0
   -1.5068  -17.7734   24.6264 C   0  0  0  0  0  0  0  0  0  0  0  0
   -2.4785  -19.0385   24.6510 C   0  0  0  0  0  0  0  0  0  0  0  0
   -2.7718  -19.8813   23.5895 C   0  0  0  0  0  0  0  0  0  0  0  0
   -3.5497  -20.8665   24.0795 N   0  0  0  0  0  0  0  0  0  0  0  0
   -3.7503  -20.5899   25.3975 C   0  0  0  0  0  0  0  0  0  0  0  0
   -4.4323  -21.5702   26.2371 C   0  0  0  0  0  0  0  0  0  0  0  0
   -3.2233  -19.4399   25.7592 N   0  0  0  0  0  0  0  0  0  0  0  0
    2.9415  -15.0516   23.4414 C   0  0  0  0  0  0  0  0  0  0  0  0
    2.4301  -13.9792   22.7177 C   0  0  0  0  0  0  0  0  0  0  0  0
    2.9742  -12.7284   22.9156 C   0  0  0  0  0  0  0  0  0  0  0  0
    4.0838  -12.4353   23.6756 N   0  0  0  0  0  0  0  0  0  0  0  0
    4.6913  -13.4747   24.2127 C   0  0  0  0  0  0  0  0  0  0  0  0
    4.2015  -14.7629   24.0497 C   0  0  0  0  0  0  0  0  0  0  0  0
    4.0705  -18.3632   21.1830 H   0  0  0  0  0  0  0  0  0  0  0  0
    4.6943  -17.0576   22.2004 H   0  0  0  0  0  0  0  0  0  0  0  0
    4.1430  -18.5635   22.9394 H   0  0  0  0  0  0  0  0  0  0  0  0
    2.2656  -16.7068   21.3733 H   0  0  0  0  0  0  0  0  0  0  0  0
    1.8537  -18.1699   22.2208 H   0  0  0  0  0  0  0  0  0  0  0  0
    2.8215  -16.9983   24.3492 H   0  0  0  0  0  0  0  0  0  0  0  0
    0.1846  -15.9260   23.9148 H   0  0  0  0  0  0  0  0  0  0  0  0
   -1.8921  -17.0788   23.8719 H   0  0  0  0  0  0  0  0  0  0  0  0
   -1.5532  -17.2959   25.6111 H   0  0  0  0  0  0  0  0  0  0  0  0
   -2.4209  -19.8817   22.5674 H   0  0  0  0  0  0  0  0  0  0  0  0
   -3.8719  -21.6916   23.5911 H   0  0  0  0  0  0  0  0  0  0  0  0
   -3.6729  -22.2174   26.6721 H   0  0  0  0  0  0  0  0  0  0  0  0
   -5.1141  -22.1684   25.6308 H   0  0  0  0  0  0  0  0  0  0  0  0
   -5.0077  -21.0975   27.0288 H   0  0  0  0  0  0  0  0  0  0  0  0
    1.5308  -14.0908   22.1214 H   0  0  0  0  0  0  0  0  0  0  0  0
    2.4565  -11.9043   22.4300 H   0  0  0  0  0  0  0  0  0  0  0  0
    5.5775  -13.2894   24.8121 H   0  0  0  0  0  0  0  0  0  0  0  0
    4.7351  -15.5688   24.5534 H   0  0  0  0  0  0  0  0  0  0  0  0
  1  2  1  0
  2  3  1  0
  3  4  1  0
  4  5  1  0
  5  6  2  0
  5  7  1  0
  7  8  1  0
  8  9  2  0
  9 10  1  0
 10 11  1  0
 11 12  1  0
 11 13  2  0
  3 14  1  0
 14 15  2  0
 15 16  1  0
 16 17  2  0
 17 18  1  0
 18 19  2  0
 13  8  1  0
 19 14  1  0
  1 20  1  0
  1 21  1  0
  1 22  1  0
  2 23  1  0
  2 24  1  0
  3 25  1  0
  4 26  1  0
  7 27  1  0
  7 28  1  0
  9 29  1  0
 10 30  1  0
 12 31  1  0
 12 32  1  0
 12 33  1  0
 15 34  1  0
 16 35  1  0
 18 36  1  0
 19 37  1  0
M  END
>  <Energy>  (279) 
62.252810891505753

>  <compound_id>  (279) 
11947

>  <target_id>  (279) 
1

>  <reference_id>  (279) 
49

>  <inspiration_ids>  (279) 
[114, 49]

>  <energy_score>  (279) 
18.99035275891137

>  <distance_score>  (279) 
14.420387730122219

>  <path>  (279) 
/opt/xchem-fragalysis-2/maxwin/BulkDock/SCRATCH/511023/C11947-P49/C11947-P49.minimised.mol

>  <scratch_subdir>  (279) 
/opt/xchem-fragalysis-2/maxwin/BulkDock/SCRATCH/511023/C11947-P49

>  <fragmenstein_runtime>  (279) 
17.423853874206543

>  <fragmenstein_outcome>  (279) 
too moved

>  <fragmenstein_mode>  (279) 
expansion

>  <fragmenstein_error>  (279) 


$$$$
C11948-P114
     RDKit          3D

 38 39  0  0  0  0  0  0  0  0999 V2000
   -5.4228  -12.0974   21.5388 C   0  0  0  0  0  0  0  0  0  0  0  0
   -5.2677  -12.6364   22.9567 C   0  0  0  0  0  0  0  0  0  0  0  0
   -3.8260  -13.0773   23.3194 C   0  0  0  0  0  0  0  0  0  0  0  0
   -3.9017  -13.8527   24.6222 N   0  0  0  0  0  0  0  0  0  0  0  0
   -4.3167  -15.2864   24.4377 C   0  0  0  0  0  0  0  0  0  0  0  0
   -4.7220  -16.0013   25.7544 C   0  0  0  0  0  0  0  0  0  0  0  0
   -4.4220  -17.4732   25.7492 C   0  0  0  0  0  0  0  0  0  0  0  0
   -4.4867  -18.4325   24.7574 C   0  0  0  0  0  0  0  0  0  0  0  0
   -4.1053  -19.6665   25.2220 N   0  0  0  0  0  0  0  0  0  0  0  0
   -3.7946  -19.4764   26.4808 C   0  0  0  0  0  0  0  0  0  0  0  0
   -3.9505  -18.1679   26.8413 N   0  0  0  0  0  0  0  0  0  0  0  0
   -3.5671  -17.6000   28.1115 C   0  0  0  0  0  0  0  0  0  0  0  0
   -2.8839  -11.8242   23.3035 C   0  0  0  0  0  0  0  0  0  0  0  0
   -2.2100  -11.4260   22.1216 C   0  0  0  0  0  0  0  0  0  0  0  0
   -1.4458  -10.2470   22.0866 C   0  0  0  0  0  0  0  0  0  0  0  0
   -1.2821   -9.4287   23.1447 N   0  0  0  0  0  0  0  0  0  0  0  0
   -1.9472   -9.7909   24.2585 C   0  0  0  0  0  0  0  0  0  0  0  0
   -2.7315  -10.9490   24.3842 C   0  0  0  0  0  0  0  0  0  0  0  0
   -4.9300  -11.1292   21.4160 H   0  0  0  0  0  0  0  0  0  0  0  0
   -6.4838  -11.9509   21.3104 H   0  0  0  0  0  0  0  0  0  0  0  0
   -5.0139  -12.7979   20.8040 H   0  0  0  0  0  0  0  0  0  0  0  0
   -5.6215  -11.8760   23.6652 H   0  0  0  0  0  0  0  0  0  0  0  0
   -5.9580  -13.4826   23.0472 H   0  0  0  0  0  0  0  0  0  0  0  0
   -3.4365  -13.7629   22.5551 H   0  0  0  0  0  0  0  0  0  0  0  0
   -2.9479  -13.8783   24.9912 H   0  0  0  0  0  0  0  0  0  0  0  0
   -5.1591  -15.3606   23.7417 H   0  0  0  0  0  0  0  0  0  0  0  0
   -3.4708  -15.8039   23.9677 H   0  0  0  0  0  0  0  0  0  0  0  0
   -5.7901  -15.8420   25.9431 H   0  0  0  0  0  0  0  0  0  0  0  0
   -4.1865  -15.5227   26.5823 H   0  0  0  0  0  0  0  0  0  0  0  0
   -4.7920  -18.3021   23.7268 H   0  0  0  0  0  0  0  0  0  0  0  0
   -3.4279  -20.2380   27.1550 H   0  0  0  0  0  0  0  0  0  0  0  0
   -3.1504  -18.3789   28.7540 H   0  0  0  0  0  0  0  0  0  0  0  0
   -2.8008  -16.8405   27.9351 H   0  0  0  0  0  0  0  0  0  0  0  0
   -4.4491  -17.1554   28.5780 H   0  0  0  0  0  0  0  0  0  0  0  0
   -2.3003  -12.0181   21.2148 H   0  0  0  0  0  0  0  0  0  0  0  0
   -0.9439   -9.9287   21.1794 H   0  0  0  0  0  0  0  0  0  0  0  0
   -1.8540   -9.1035   25.0952 H   0  0  0  0  0  0  0  0  0  0  0  0
   -3.2486  -11.1464   25.3196 H   0  0  0  0  0  0  0  0  0  0  0  0
  1  2  1  0
  2  3  1  0
  3  4  1  0
  4  5  1  0
  5  6  1  0
  6  7  1  0
  7  8  2  0
  8  9  1  0
  9 10  2  0
 10 11  1  0
 11 12  1  0
  3 13  1  0
 13 14  2  0
 14 15  1  0
 15 16  2  0
 16 17  1  0
 17 18  2  0
 11  7  1  0
 18 13  1  0
  1 19  1  0
  1 20  1  0
  1 21  1  0
  2 22  1  0
  2 23  1  0
  3 24  1  0
  4 25  1  0
  5 26  1  0
  5 27  1  0
  6 28  1  0
  6 29  1  0
  8 30  1  0
 10 31  1  0
 12 32  1  0
 12 33  1  0
 12 34  1  0
 14 35  1  0
 15 36  1  0
 17 37  1  0
 18 38  1  0
M  END
>  <Energy>  (280) 
37.581440618377705

>  <compound_id>  (280) 
11948

>  <target_id>  (280) 
1

>  <reference_id>  (280) 
114

>  <inspiration_ids>  (280) 
[114, 49]

>  <energy_score>  (280) 
-18.85196004309455

>  <distance_score>  (280) 
14.29021271371515

>  <path>  (280) 
/opt/xchem-fragalysis-2/maxwin/BulkDock/SCRATCH/511023/C11948-P114/C11948-P114.minimised.mol

>  <scratch_subdir>  (280) 
/opt/xchem-fragalysis-2/maxwin/BulkDock/SCRATCH/511023/C11948-P114

>  <fragmenstein_runtime>  (280) 
24.188964366912842

>  <fragmenstein_outcome>  (280) 
too moved

>  <fragmenstein_mode>  (280) 
expansion

>  <fragmenstein_error>  (280) 


$$$$
C11948-P49
     RDKit          3D

 38 39  0  0  0  0  0  0  0  0999 V2000
    5.2221  -10.5188   18.0648 C   0  0  0  0  0  0  0  0  0  0  0  0
    4.4104   -9.9393   19.1487 C   0  0  0  0  0  0  0  0  0  0  0  0
    3.9660   -8.5462   20.2108 C   0  0  0  0  0  0  0  0  0  0  0  0
    2.3368   -9.4310   20.5221 N   0  0  0  0  0  0  0  0  0  0  0  0
    1.2443  -10.4289   21.4422 C   0  0  0  0  0  0  0  0  0  0  0  0
   -0.6409  -10.1728   20.8707 C   0  0  0  0  0  0  0  0  0  0  0  0
   -2.2865  -10.5343   21.3114 C   0  0  0  0  0  0  0  0  0  0  0  0
   -2.9448  -11.7810   21.3390 C   0  0  0  0  0  0  0  0  0  0  0  0
   -4.1825  -11.7084   21.9197 N   0  0  0  0  0  0  0  0  0  0  0  0
   -4.3271  -10.4370   22.2070 C   0  0  0  0  0  0  0  0  0  0  0  0
   -3.2335   -9.6882   21.8316 N   0  0  0  0  0  0  0  0  0  0  0  0
   -3.1201   -8.2584   21.9589 C   0  0  0  0  0  0  0  0  0  0  0  0
    4.0124   -6.5864   19.0930 C   0  0  0  0  0  0  0  0  0  0  0  0
    5.4206   -5.8433   18.3617 C   0  0  0  0  0  0  0  0  0  0  0  0
    5.7090   -5.3303   16.5468 C   0  0  0  0  0  0  0  0  0  0  0  0
    5.1415   -5.3937   15.3291 N   0  0  0  0  0  0  0  0  0  0  0  0
    4.1521   -6.1093   15.6156 C   0  0  0  0  0  0  0  0  0  0  0  0
    4.1883   -6.8146   17.1124 C   0  0  0  0  0  0  0  0  0  0  0  0
    5.9275  -11.1729   18.5676 H   0  0  0  0  0  0  0  0  0  0  0  0
    4.6112  -11.1695   17.4474 H   0  0  0  0  0  0  0  0  0  0  0  0
    5.7722   -9.7974   17.4767 H   0  0  0  0  0  0  0  0  0  0  0  0
    3.7093  -10.7561   19.3419 H   0  0  0  0  0  0  0  0  0  0  0  0
    5.3426   -9.7642   19.6539 H   0  0  0  0  0  0  0  0  0  0  0  0
    4.5939   -8.7402   21.1237 H   0  0  0  0  0  0  0  0  0  0  0  0
    1.7143   -8.6084   20.4275 H   0  0  0  0  0  0  0  0  0  0  0  0
    1.2493  -10.2031   22.4891 H   0  0  0  0  0  0  0  0  0  0  0  0
    1.8531  -11.3313   21.5083 H   0  0  0  0  0  0  0  0  0  0  0  0
   -0.7462  -11.2383   20.9898 H   0  0  0  0  0  0  0  0  0  0  0  0
   -0.7288   -9.6448   19.9066 H   0  0  0  0  0  0  0  0  0  0  0  0
   -2.5449  -12.7350   21.0218 H   0  0  0  0  0  0  0  0  0  0  0  0
   -5.1994   -9.9942   22.6699 H   0  0  0  0  0  0  0  0  0  0  0  0
   -2.6153   -8.0391   22.9028 H   0  0  0  0  0  0  0  0  0  0  0  0
   -4.1188   -7.8144   21.9513 H   0  0  0  0  0  0  0  0  0  0  0  0
   -2.5415   -7.8690   21.1174 H   0  0  0  0  0  0  0  0  0  0  0  0
    5.6276   -5.0464   19.1455 H   0  0  0  0  0  0  0  0  0  0  0  0
    5.6709   -4.2022   16.7147 H   0  0  0  0  0  0  0  0  0  0  0  0
    3.3051   -6.1719   14.9568 H   0  0  0  0  0  0  0  0  0  0  0  0
    3.8141   -7.8432   16.5816 H   0  0  0  0  0  0  0  0  0  0  0  0
  1  2  1  0
  2  3  1  0
  3  4  1  0
  4  5  1  0
  5  6  1  0
  6  7  1  0
  7  8  2  0
  8  9  1  0
  9 10  2  0
 10 11  1  0
 11 12  1  0
  3 13  1  0
 13 14  2  0
 14 15  1  0
 15 16  2  0
 16 17  1  0
 17 18  2  0
 11  7  1  0
 18 13  1  0
  1 19  1  0
  1 20  1  0
  1 21  1  0
  2 22  1  0
  2 23  1  0
  3 24  1  0
  4 25  1  0
  5 26  1  0
  5 27  1  0
  6 28  1  0
  6 29  1  0
  8 30  1  0
 10 31  1  0
 12 32  1  0
 12 33  1  0
 12 34  1  0
 14 35  1  0
 15 36  1  0
 17 37  1  0
 18 38  1  0
M  END
>  <Energy>  (281) 
988.01022741948736

>  <compound_id>  (281) 
11948

>  <target_id>  (281) 
1

>  <reference_id>  (281) 
49

>  <inspiration_ids>  (281) 
[114, 49]

>  <energy_score>  (281) 
931.5768267580172

>  <distance_score>  (281) 
15.833761487528974

>  <path>  (281) 
/opt/xchem-fragalysis-2/maxwin/BulkDock/SCRATCH/511023/C11948-P49/C11948-P49.minimised.mol

>  <scratch_subdir>  (281) 
/opt/xchem-fragalysis-2/maxwin/BulkDock/SCRATCH/511023/C11948-P49

>  <fragmenstein_runtime>  (281) 
17.426413774490356

>  <fragmenstein_outcome>  (281) 
too moved

>  <fragmenstein_mode>  (281) 
expansion

>  <fragmenstein_error>  (281) 


$$$$
C8989-P114
     RDKit          3D

 35 36  0  0  0  0  0  0  0  0999 V2000
   -0.6050   -8.8887   29.2674 C   0  0  0  0  0  0  0  0  0  0  0  0
   -1.9454   -8.1839   29.0888 C   0  0  0  0  0  0  0  0  0  0  0  0
   -2.0161   -7.5092   27.6811 C   0  0  0  0  0  0  0  0  0  0  0  0
   -1.1063   -6.4487   27.2369 N   0  0  0  0  0  0  0  0  0  0  0  0
   -1.1963   -5.5294   26.1246 C   0  0  0  0  0  0  0  0  0  0  0  0
   -2.0752   -5.3491   25.3314 O   0  0  0  0  0  0  0  0  0  0  0  0
    0.0427   -4.6845   25.9294 C   0  0  0  0  0  0  0  0  0  0  0  0
    0.2189   -3.8666   24.8110 C   0  0  0  0  0  0  0  0  0  0  0  0
    1.6565   -2.9411   24.9219 S   0  0  0  0  0  0  0  0  0  0  0  0
    2.0299   -3.7780   26.3709 C   0  0  0  0  0  0  0  0  0  0  0  0
    1.1268   -4.6325   26.8199 N   0  0  0  0  0  0  0  0  0  0  0  0
   -3.1068   -9.1198   29.2599 N   0  0  0  0  0  0  0  0  0  0  0  0
   -3.3277  -10.2194   30.2144 C   0  0  0  0  0  0  0  0  0  0  0  0
   -2.5996  -10.6928   31.0426 O   0  0  0  0  0  0  0  0  0  0  0  0
   -4.7818  -10.7602   30.0450 C   0  0  0  0  0  0  0  0  0  0  0  0
   -5.1172  -12.1417   30.5861 C   0  0  0  0  0  0  0  0  0  0  0  0
   -6.3054  -12.7262   30.4823 N   0  0  0  0  0  0  0  0  0  0  0  0
   -6.1961  -13.9443   31.1054 C   0  0  0  0  0  0  0  0  0  0  0  0
   -4.9215  -14.1271   31.5772 C   0  0  0  0  0  0  0  0  0  0  0  0
   -4.2425  -12.9855   31.2340 N   0  0  0  0  0  0  0  0  0  0  0  0
   -0.5214   -9.3393   30.2607 H   0  0  0  0  0  0  0  0  0  0  0  0
   -0.4729   -9.6817   28.5260 H   0  0  0  0  0  0  0  0  0  0  0  0
    0.2257   -8.1840   29.1579 H   0  0  0  0  0  0  0  0  0  0  0  0
   -2.0558   -7.4177   29.8638 H   0  0  0  0  0  0  0  0  0  0  0  0
   -3.0245   -7.0965   27.5489 H   0  0  0  0  0  0  0  0  0  0  0  0
   -1.9237   -8.2964   26.9254 H   0  0  0  0  0  0  0  0  0  0  0  0
   -0.1762   -6.3850   27.6442 H   0  0  0  0  0  0  0  0  0  0  0  0
   -0.4567   -3.7431   23.9762 H   0  0  0  0  0  0  0  0  0  0  0  0
    2.9533   -3.5877   26.9019 H   0  0  0  0  0  0  0  0  0  0  0  0
   -3.9722   -8.9310   28.7641 H   0  0  0  0  0  0  0  0  0  0  0  0
   -5.0319  -10.7765   28.9805 H   0  0  0  0  0  0  0  0  0  0  0  0
   -5.4459  -10.0365   30.5330 H   0  0  0  0  0  0  0  0  0  0  0  0
   -7.0369  -14.6156   31.1862 H   0  0  0  0  0  0  0  0  0  0  0  0
   -4.4469  -14.9385   32.1093 H   0  0  0  0  0  0  0  0  0  0  0  0
   -3.2698  -12.7694   31.4278 H   0  0  0  0  0  0  0  0  0  0  0  0
  1  2  1  0
  2  3  1  0
  3  4  1  0
  4  5  1  0
  5  6  2  0
  5  7  1  0
  7  8  2  0
  8  9  1  0
  9 10  1  0
 10 11  2  0
  2 12  1  0
 12 13  1  0
 13 14  2  0
 13 15  1  0
 15 16  1  0
 16 17  2  0
 17 18  1  0
 18 19  2  0
 19 20  1  0
 11  7  1  0
 20 16  1  0
  1 21  1  0
  1 22  1  0
  1 23  1  0
  2 24  1  0
  3 25  1  0
  3 26  1  0
  4 27  1  0
  8 28  1  0
 10 29  1  0
 12 30  1  0
 15 31  1  0
 15 32  1  0
 18 33  1  0
 19 34  1  0
 20 35  1  0
M  END
>  <Energy>  (282) 
40.529525246218377

>  <compound_id>  (282) 
8989

>  <target_id>  (282) 
1

>  <reference_id>  (282) 
114

>  <inspiration_ids>  (282) 
[114, 49]

>  <energy_score>  (282) 
-71.36678234754629

>  <distance_score>  (282) 
14.495149510758608

>  <path>  (282) 
/opt/xchem-fragalysis-2/maxwin/BulkDock/SCRATCH/511023/C8989-P114/C8989-P114.minimised.mol

>  <scratch_subdir>  (282) 
/opt/xchem-fragalysis-2/maxwin/BulkDock/SCRATCH/511023/C8989-P114

>  <fragmenstein_runtime>  (282) 
38.52541399002075

>  <fragmenstein_outcome>  (282) 
too moved

>  <fragmenstein_mode>  (282) 
expansion

>  <fragmenstein_error>  (282) 


$$$$
C8989-P49
     RDKit          3D

 35 36  0  0  0  0  0  0  0  0999 V2000
    2.2508  -11.6939   22.1254 C   0  0  0  0  0  0  0  0  0  0  0  0
    2.8651  -12.9261   21.4914 C   0  0  0  0  0  0  0  0  0  0  0  0
    2.8349  -11.7890   19.7552 C   0  0  0  0  0  0  0  0  0  0  0  0
    4.0249  -11.7404   18.4441 N   0  0  0  0  0  0  0  0  0  0  0  0
    5.2443  -10.9352   18.2702 C   0  0  0  0  0  0  0  0  0  0  0  0
    5.7841  -10.1633   19.0136 O   0  0  0  0  0  0  0  0  0  0  0  0
    5.8771  -10.9952   16.9177 C   0  0  0  0  0  0  0  0  0  0  0  0
    5.7727  -11.9815   15.9583 C   0  0  0  0  0  0  0  0  0  0  0  0
    6.6843  -11.5740   14.5576 S   0  0  0  0  0  0  0  0  0  0  0  0
    7.1698  -10.1196   15.3046 C   0  0  0  0  0  0  0  0  0  0  0  0
    6.6991   -9.9089   16.5102 N   0  0  0  0  0  0  0  0  0  0  0  0
    1.8301  -14.1243   22.0720 N   0  0  0  0  0  0  0  0  0  0  0  0
    2.1590  -15.7703   23.3168 C   0  0  0  0  0  0  0  0  0  0  0  0
    3.2026  -16.1605   23.7756 O   0  0  0  0  0  0  0  0  0  0  0  0
    0.5300  -16.9491   24.1154 C   0  0  0  0  0  0  0  0  0  0  0  0
   -0.9768  -16.7054   25.3993 C   0  0  0  0  0  0  0  0  0  0  0  0
   -2.1939  -17.1677   25.2162 N   0  0  0  0  0  0  0  0  0  0  0  0
   -2.5195  -18.0438   26.2853 C   0  0  0  0  0  0  0  0  0  0  0  0
   -1.6917  -17.7608   27.2958 C   0  0  0  0  0  0  0  0  0  0  0  0
   -0.8855  -16.8060   26.7088 N   0  0  0  0  0  0  0  0  0  0  0  0
    2.8923  -11.7405   22.9791 H   0  0  0  0  0  0  0  0  0  0  0  0
    1.2424  -11.6058   22.4994 H   0  0  0  0  0  0  0  0  0  0  0  0
    2.2062  -10.7926   21.5716 H   0  0  0  0  0  0  0  0  0  0  0  0
    2.6296  -13.4540   20.6421 H   0  0  0  0  0  0  0  0  0  0  0  0
    2.2786  -12.4133   19.1240 H   0  0  0  0  0  0  0  0  0  0  0  0
    2.9792  -10.7645   20.0560 H   0  0  0  0  0  0  0  0  0  0  0  0
    3.9089  -12.3434   17.6442 H   0  0  0  0  0  0  0  0  0  0  0  0
    5.2270  -12.9131   15.9936 H   0  0  0  0  0  0  0  0  0  0  0  0
    7.8272   -9.4340   14.7938 H   0  0  0  0  0  0  0  0  0  0  0  0
    0.9138  -13.9712   21.9088 H   0  0  0  0  0  0  0  0  0  0  0  0
    0.6443  -16.8346   25.2566 H   0  0  0  0  0  0  0  0  0  0  0  0
   -0.2267  -16.1316   24.3839 H   0  0  0  0  0  0  0  0  0  0  0  0
   -3.3360  -18.7529   26.2404 H   0  0  0  0  0  0  0  0  0  0  0  0
   -1.5959  -18.1038   28.3167 H   0  0  0  0  0  0  0  0  0  0  0  0
   -0.0923  -16.3253   27.0418 H   0  0  0  0  0  0  0  0  0  0  0  0
  1  2  1  0
  2  3  1  0
  3  4  1  0
  4  5  1  0
  5  6  2  0
  5  7  1  0
  7  8  2  0
  8  9  1  0
  9 10  1  0
 10 11  2  0
  2 12  1  0
 12 13  1  0
 13 14  2  0
 13 15  1  0
 15 16  1  0
 16 17  2  0
 17 18  1  0
 18 19  2  0
 19 20  1  0
 11  7  1  0
 20 16  1  0
  1 21  1  0
  1 22  1  0
  1 23  1  0
  2 24  1  0
  3 25  1  0
  3 26  1  0
  4 27  1  0
  8 28  1  0
 10 29  1  0
 12 30  1  0
 15 31  1  0
 15 32  1  0
 18 33  1  0
 19 34  1  0
 20 35  1  0
M  END
>  <Energy>  (283) 
802.3975510524732

>  <compound_id>  (283) 
8989

>  <target_id>  (283) 
1

>  <reference_id>  (283) 
49

>  <inspiration_ids>  (283) 
[114, 49]

>  <energy_score>  (283) 
690.5012434587131

>  <distance_score>  (283) 
12.233560793674636

>  <path>  (283) 
/opt/xchem-fragalysis-2/maxwin/BulkDock/SCRATCH/511023/C8989-P49/C8989-P49.minimised.mol

>  <scratch_subdir>  (283) 
/opt/xchem-fragalysis-2/maxwin/BulkDock/SCRATCH/511023/C8989-P49

>  <fragmenstein_runtime>  (283) 
17.208178758621216

>  <fragmenstein_outcome>  (283) 
too moved

>  <fragmenstein_mode>  (283) 
expansion

>  <fragmenstein_error>  (283) 


$$$$
C11943-P114
     RDKit          3D

 44 45  0  0  0  0  0  0  0  0999 V2000
   -0.3002  -17.8253   24.9612 C   0  0  0  0  0  0  0  0  0  0  0  0
   -1.0616  -16.7809   24.1607 C   0  0  0  0  0  0  0  0  0  0  0  0
   -1.4778  -17.3022   22.8324 C   0  0  0  0  0  0  0  0  0  0  0  0
   -2.6171  -17.9489   22.4107 C   0  0  0  0  0  0  0  0  0  0  0  0
   -2.5392  -18.2192   21.0669 N   0  0  0  0  0  0  0  0  0  0  0  0
   -1.3760  -17.7356   20.6485 C   0  0  0  0  0  0  0  0  0  0  0  0
   -0.7816  -17.9019   19.2693 C   0  0  0  0  0  0  0  0  0  0  0  0
   -0.1636  -16.6375   18.5849 C   0  0  0  0  0  0  0  0  0  0  0  0
   -0.8892  -15.8385   18.0614 O   0  0  0  0  0  0  0  0  0  0  0  0
    1.2891  -16.7098   18.6332 N   0  0  0  0  0  0  0  0  0  0  0  0
    2.3531  -15.8617   17.9570 C   0  0  0  0  0  0  0  0  0  0  0  0
    3.3727  -16.9206   17.5358 C   0  0  0  0  0  0  0  0  0  0  0  0
    3.0627  -14.4576   18.8648 C   0  0  0  0  0  0  0  0  0  0  0  0
    4.0683  -12.9304   18.5670 N   0  0  0  0  0  0  0  0  0  0  0  0
    5.5371  -12.3624   19.3242 C   0  0  0  0  0  0  0  0  0  0  0  0
    6.0928  -12.8619   20.2714 O   0  0  0  0  0  0  0  0  0  0  0  0
    6.6206  -10.9031   18.6121 C   0  0  0  0  0  0  0  0  0  0  0  0
    7.6765  -10.4675   19.2775 C   0  0  0  0  0  0  0  0  0  0  0  0
    8.9299   -9.5554   18.6206 C   0  0  0  0  0  0  0  0  0  0  0  0
    9.8559   -9.8923   17.6955 N   0  0  0  0  0  0  0  0  0  0  0  0
    9.2351  -10.5365   16.8136 C   0  0  0  0  0  0  0  0  0  0  0  0
    7.9117  -10.8981   17.2502 C   0  0  0  0  0  0  0  0  0  0  0  0
   -0.6824  -17.2086   21.7128 N   0  0  0  0  0  0  0  0  0  0  0  0
   -0.9155  -18.7140   25.1391 H   0  0  0  0  0  0  0  0  0  0  0  0
   -0.0048  -17.4169   25.9328 H   0  0  0  0  0  0  0  0  0  0  0  0
    0.6068  -18.1456   24.4375 H   0  0  0  0  0  0  0  0  0  0  0  0
   -0.4372  -15.8882   24.0350 H   0  0  0  0  0  0  0  0  0  0  0  0
   -1.9481  -16.4676   24.7246 H   0  0  0  0  0  0  0  0  0  0  0  0
   -3.4857  -18.2287   22.9924 H   0  0  0  0  0  0  0  0  0  0  0  0
   -1.5699  -18.2573   18.5924 H   0  0  0  0  0  0  0  0  0  0  0  0
   -0.0461  -18.7141   19.3054 H   0  0  0  0  0  0  0  0  0  0  0  0
    1.5612  -17.5662   19.0929 H   0  0  0  0  0  0  0  0  0  0  0  0
    1.8694  -15.4642   17.0560 H   0  0  0  0  0  0  0  0  0  0  0  0
    2.8885  -17.7982   17.0910 H   0  0  0  0  0  0  0  0  0  0  0  0
    4.0376  -16.5141   16.7690 H   0  0  0  0  0  0  0  0  0  0  0  0
    3.9829  -17.2643   18.3756 H   0  0  0  0  0  0  0  0  0  0  0  0
    2.1626  -14.0333   18.4330 H   0  0  0  0  0  0  0  0  0  0  0  0
    3.9591  -14.8561   18.3645 H   0  0  0  0  0  0  0  0  0  0  0  0
    3.7833  -12.2663   17.8472 H   0  0  0  0  0  0  0  0  0  0  0  0
    8.0378  -11.4050   19.7134 H   0  0  0  0  0  0  0  0  0  0  0  0
    9.4101   -8.8543   19.3384 H   0  0  0  0  0  0  0  0  0  0  0  0
    9.7285  -10.9011   15.9240 H   0  0  0  0  0  0  0  0  0  0  0  0
    8.1088  -11.8458   16.6985 H   0  0  0  0  0  0  0  0  0  0  0  0
    0.2668  -16.8417   21.6971 H   0  0  0  0  0  0  0  0  0  0  0  0
  1  2  1  0
  2  3  1  0
  3  4  2  0
  4  5  1  0
  5  6  2  0
  6  7  1  0
  7  8  1  0
  8  9  2  0
  8 10  1  0
 10 11  1  0
 11 12  1  0
 11 13  1  0
 13 14  1  0
 14 15  1  0
 15 16  2  0
 15 17  1  0
 17 18  2  0
 18 19  1  0
 19 20  2  0
 20 21  1  0
 21 22  2  0
  6 23  1  0
 23  3  1  0
 22 17  1  0
  1 24  1  0
  1 25  1  0
  1 26  1  0
  2 27  1  0
  2 28  1  0
  4 29  1  0
  7 30  1  0
  7 31  1  0
 10 32  1  0
 11 33  1  0
 12 34  1  0
 12 35  1  0
 12 36  1  0
 13 37  1  0
 13 38  1  0
 14 39  1  0
 18 40  1  0
 19 41  1  0
 21 42  1  0
 22 43  1  0
 23 44  1  0
M  END
>  <Energy>  (284) 
493.85834816132189

>  <compound_id>  (284) 
11943

>  <target_id>  (284) 
1

>  <reference_id>  (284) 
114

>  <inspiration_ids>  (284) 
[114, 49]

>  <energy_score>  (284) 
453.49759671119364

>  <distance_score>  (284) 
14.441412189437091

>  <path>  (284) 
/opt/xchem-fragalysis-2/maxwin/BulkDock/SCRATCH/511023/C11943-P114/C11943-P114.minimised.mol

>  <scratch_subdir>  (284) 
/opt/xchem-fragalysis-2/maxwin/BulkDock/SCRATCH/511023/C11943-P114

>  <fragmenstein_runtime>  (284) 
36.51195573806763

>  <fragmenstein_outcome>  (284) 
too moved

>  <fragmenstein_mode>  (284) 
expansion

>  <fragmenstein_error>  (284) 


$$$$
C11943-P49
     RDKit          3D

 44 45  0  0  0  0  0  0  0  0999 V2000
   -3.6135  -21.9330   24.0828 C   0  0  0  0  0  0  0  0  0  0  0  0
   -2.5569  -20.8467   23.9657 C   0  0  0  0  0  0  0  0  0  0  0  0
   -3.1606  -19.5017   23.7666 C   0  0  0  0  0  0  0  0  0  0  0  0
   -3.7379  -18.6136   24.6462 C   0  0  0  0  0  0  0  0  0  0  0  0
   -4.1368  -17.4736   23.9888 N   0  0  0  0  0  0  0  0  0  0  0  0
   -3.8113  -17.6498   22.7185 C   0  0  0  0  0  0  0  0  0  0  0  0
   -3.9823  -16.6683   21.5832 C   0  0  0  0  0  0  0  0  0  0  0  0
   -3.2791  -15.2820   21.7232 C   0  0  0  0  0  0  0  0  0  0  0  0
   -3.2794  -14.5648   20.7617 O   0  0  0  0  0  0  0  0  0  0  0  0
   -2.8112  -15.0585   23.0494 N   0  0  0  0  0  0  0  0  0  0  0  0
   -2.2784  -13.8715   23.6842 C   0  0  0  0  0  0  0  0  0  0  0  0
   -2.3547  -14.1736   25.2089 C   0  0  0  0  0  0  0  0  0  0  0  0
   -0.9502  -12.9482   23.2073 C   0  0  0  0  0  0  0  0  0  0  0  0
    0.4574  -12.6925   22.0952 N   0  0  0  0  0  0  0  0  0  0  0  0
    1.4942  -11.2532   21.8255 C   0  0  0  0  0  0  0  0  0  0  0  0
    1.4107  -10.2743   22.4485 O   0  0  0  0  0  0  0  0  0  0  0  0
    2.7136  -11.0747   20.4217 C   0  0  0  0  0  0  0  0  0  0  0  0
    2.9496  -11.8963   19.1423 C   0  0  0  0  0  0  0  0  0  0  0  0
    3.6584  -11.8527   17.7994 C   0  0  0  0  0  0  0  0  0  0  0  0
    4.7286  -11.1290   17.7043 N   0  0  0  0  0  0  0  0  0  0  0  0
    4.6792  -10.2853   18.7202 C   0  0  0  0  0  0  0  0  0  0  0  0
    3.5719  -10.0060   19.9623 C   0  0  0  0  0  0  0  0  0  0  0  0
   -3.2330  -18.8847   22.5416 N   0  0  0  0  0  0  0  0  0  0  0  0
   -4.2545  -21.7681   24.9552 H   0  0  0  0  0  0  0  0  0  0  0  0
   -4.2532  -21.9643   23.1943 H   0  0  0  0  0  0  0  0  0  0  0  0
   -3.1384  -22.9126   24.1947 H   0  0  0  0  0  0  0  0  0  0  0  0
   -1.9425  -20.8385   24.8737 H   0  0  0  0  0  0  0  0  0  0  0  0
   -1.8846  -21.0841   23.1326 H   0  0  0  0  0  0  0  0  0  0  0  0
   -3.8815  -18.7304   25.7128 H   0  0  0  0  0  0  0  0  0  0  0  0
   -5.0541  -16.4708   21.4632 H   0  0  0  0  0  0  0  0  0  0  0  0
   -3.6148  -17.1191   20.6533 H   0  0  0  0  0  0  0  0  0  0  0  0
   -3.0514  -15.8657   23.6264 H   0  0  0  0  0  0  0  0  0  0  0  0
   -3.1011  -13.1489   23.5495 H   0  0  0  0  0  0  0  0  0  0  0  0
   -1.7734  -15.0600   25.4833 H   0  0  0  0  0  0  0  0  0  0  0  0
   -2.0028  -13.3202   25.7967 H   0  0  0  0  0  0  0  0  0  0  0  0
   -3.3917  -14.3720   25.5067 H   0  0  0  0  0  0  0  0  0  0  0  0
   -1.5822  -12.6268   22.3922 H   0  0  0  0  0  0  0  0  0  0  0  0
   -0.7231  -12.3865   24.1261 H   0  0  0  0  0  0  0  0  0  0  0  0
    0.7820  -13.4733   21.4709 H   0  0  0  0  0  0  0  0  0  0  0  0
    4.0583  -12.1852   19.1321 H   0  0  0  0  0  0  0  0  0  0  0  0
    3.3344  -12.5478   17.0372 H   0  0  0  0  0  0  0  0  0  0  0  0
    5.5288   -9.7012   18.5848 H   0  0  0  0  0  0  0  0  0  0  0  0
    3.9137   -9.1413   20.5113 H   0  0  0  0  0  0  0  0  0  0  0  0
   -2.9000  -19.2635   21.6647 H   0  0  0  0  0  0  0  0  0  0  0  0
  1  2  1  0
  2  3  1  0
  3  4  2  0
  4  5  1  0
  5  6  2  0
  6  7  1  0
  7  8  1  0
  8  9  2  0
  8 10  1  0
 10 11  1  0
 11 12  1  0
 11 13  1  0
 13 14  1  0
 14 15  1  0
 15 16  2  0
 15 17  1  0
 17 18  2  0
 18 19  1  0
 19 20  2  0
 20 21  1  0
 21 22  2  0
  6 23  1  0
 23  3  1  0
 22 17  1  0
  1 24  1  0
  1 25  1  0
  1 26  1  0
  2 27  1  0
  2 28  1  0
  4 29  1  0
  7 30  1  0
  7 31  1  0
 10 32  1  0
 11 33  1  0
 12 34  1  0
 12 35  1  0
 12 36  1  0
 13 37  1  0
 13 38  1  0
 14 39  1  0
 18 40  1  0
 19 41  1  0
 21 42  1  0
 22 43  1  0
 23 44  1  0
M  END
>  <Energy>  (285) 
391.75043905649267

>  <compound_id>  (285) 
11943

>  <target_id>  (285) 
1

>  <reference_id>  (285) 
49

>  <inspiration_ids>  (285) 
[114, 49]

>  <energy_score>  (285) 
351.3896876063632

>  <distance_score>  (285) 
13.029525247259972

>  <path>  (285) 
/opt/xchem-fragalysis-2/maxwin/BulkDock/SCRATCH/511023/C11943-P49/C11943-P49.minimised.mol

>  <scratch_subdir>  (285) 
/opt/xchem-fragalysis-2/maxwin/BulkDock/SCRATCH/511023/C11943-P49

>  <fragmenstein_runtime>  (285) 
30.56560707092285

>  <fragmenstein_outcome>  (285) 
too moved

>  <fragmenstein_mode>  (285) 
expansion

>  <fragmenstein_error>  (285) 


$$$$
C9625-P114
     RDKit          3D

 44 45  0  0  0  0  0  0  0  0999 V2000
    8.8660   -5.8633   22.7196 C   0  0  0  0  0  0  0  0  0  0  0  0
    9.9562   -6.6547   23.4176 C   0  0  0  0  0  0  0  0  0  0  0  0
    9.6762   -8.1226   23.3802 C   0  0  0  0  0  0  0  0  0  0  0  0
   10.1218   -9.0839   22.5043 C   0  0  0  0  0  0  0  0  0  0  0  0
    9.6163  -10.3128   22.8387 N   0  0  0  0  0  0  0  0  0  0  0  0
    8.8936  -10.1582   23.9453 C   0  0  0  0  0  0  0  0  0  0  0  0
    8.2267  -11.3389   24.6723 C   0  0  0  0  0  0  0  0  0  0  0  0
    7.2862  -11.1480   25.9075 C   0  0  0  0  0  0  0  0  0  0  0  0
    7.1732  -10.0747   26.4360 O   0  0  0  0  0  0  0  0  0  0  0  0
    6.6145  -12.4474   26.1979 N   0  0  0  0  0  0  0  0  0  0  0  0
    5.6576  -12.8459   27.3082 C   0  0  0  0  0  0  0  0  0  0  0  0
    6.4550  -13.4454   28.4615 C   0  0  0  0  0  0  0  0  0  0  0  0
    4.5644  -13.8723   26.7879 C   0  0  0  0  0  0  0  0  0  0  0  0
    3.3930  -14.3128   27.5818 N   0  0  0  0  0  0  0  0  0  0  0  0
    3.2064  -15.4643   28.4395 C   0  0  0  0  0  0  0  0  0  0  0  0
    3.9800  -16.3118   28.7895 O   0  0  0  0  0  0  0  0  0  0  0  0
    1.7298  -15.6993   28.9014 C   0  0  0  0  0  0  0  0  0  0  0  0
    1.4098  -16.8084   29.7052 C   0  0  0  0  0  0  0  0  0  0  0  0
    0.0730  -17.0876   30.0326 C   0  0  0  0  0  0  0  0  0  0  0  0
   -0.9272  -16.2616   29.5434 C   0  0  0  0  0  0  0  0  0  0  0  0
   -0.5381  -15.1890   28.7504 C   0  0  0  0  0  0  0  0  0  0  0  0
    0.7546  -14.8807   28.4174 N   0  0  0  0  0  0  0  0  0  0  0  0
    8.8761   -8.8146   24.2834 N   0  0  0  0  0  0  0  0  0  0  0  0
    7.8996   -6.0197   23.2095 H   0  0  0  0  0  0  0  0  0  0  0  0
    9.0931   -4.7931   22.7488 H   0  0  0  0  0  0  0  0  0  0  0  0
    8.7666   -6.1623   21.6704 H   0  0  0  0  0  0  0  0  0  0  0  0
   10.0419   -6.3239   24.4593 H   0  0  0  0  0  0  0  0  0  0  0  0
   10.9204   -6.4511   22.9372 H   0  0  0  0  0  0  0  0  0  0  0  0
   10.7752   -8.9577   21.6507 H   0  0  0  0  0  0  0  0  0  0  0  0
    7.6516  -11.8733   23.9071 H   0  0  0  0  0  0  0  0  0  0  0  0
    9.0359  -12.0038   25.0011 H   0  0  0  0  0  0  0  0  0  0  0  0
    7.0123  -13.1681   25.6053 H   0  0  0  0  0  0  0  0  0  0  0  0
    5.1777  -11.9336   27.6729 H   0  0  0  0  0  0  0  0  0  0  0  0
    7.2055  -12.7347   28.8242 H   0  0  0  0  0  0  0  0  0  0  0  0
    5.7997  -13.7034   29.2993 H   0  0  0  0  0  0  0  0  0  0  0  0
    6.9845  -14.3513   28.1470 H   0  0  0  0  0  0  0  0  0  0  0  0
    5.0850  -14.7916   26.4909 H   0  0  0  0  0  0  0  0  0  0  0  0
    4.1215  -13.4624   25.8765 H   0  0  0  0  0  0  0  0  0  0  0  0
    2.4915  -13.8571   27.4367 H   0  0  0  0  0  0  0  0  0  0  0  0
    2.2017  -17.4624   30.0613 H   0  0  0  0  0  0  0  0  0  0  0  0
   -0.1693  -17.9460   30.6526 H   0  0  0  0  0  0  0  0  0  0  0  0
   -1.9729  -16.4431   29.7640 H   0  0  0  0  0  0  0  0  0  0  0  0
   -1.2826  -14.5134   28.3345 H   0  0  0  0  0  0  0  0  0  0  0  0
    8.3487   -8.4270   25.0574 H   0  0  0  0  0  0  0  0  0  0  0  0
  1  2  1  0
  2  3  1  0
  3  4  2  0
  4  5  1  0
  5  6  2  0
  6  7  1  0
  7  8  1  0
  8  9  2  0
  8 10  1  0
 10 11  1  0
 11 12  1  0
 11 13  1  0
 13 14  1  0
 14 15  1  0
 15 16  2  0
 15 17  1  0
 17 18  2  0
 18 19  1  0
 19 20  2  0
 20 21  1  0
 21 22  2  0
  6 23  1  0
 23  3  1  0
 22 17  1  0
  1 24  1  0
  1 25  1  0
  1 26  1  0
  2 27  1  0
  2 28  1  0
  4 29  1  0
  7 30  1  0
  7 31  1  0
 10 32  1  0
 11 33  1  0
 12 34  1  0
 12 35  1  0
 12 36  1  0
 13 37  1  0
 13 38  1  0
 14 39  1  0
 18 40  1  0
 19 41  1  0
 20 42  1  0
 21 43  1  0
 23 44  1  0
M  END
>  <Energy>  (286) 
75.594507471882196

>  <compound_id>  (286) 
9625

>  <target_id>  (286) 
1

>  <reference_id>  (286) 
114

>  <inspiration_ids>  (286) 
[114, 49]

>  <energy_score>  (286) 
-3.1567407358850232

>  <distance_score>  (286) 
15.553138510154835

>  <path>  (286) 
/opt/xchem-fragalysis-2/maxwin/BulkDock/SCRATCH/511023/C9625-P114/C9625-P114.minimised.mol

>  <scratch_subdir>  (286) 
/opt/xchem-fragalysis-2/maxwin/BulkDock/SCRATCH/511023/C9625-P114

>  <fragmenstein_runtime>  (286) 
28.59474205970764

>  <fragmenstein_outcome>  (286) 
too moved

>  <fragmenstein_mode>  (286) 
expansion

>  <fragmenstein_error>  (286) 


$$$$
C9625-P49
     RDKit          3D

 44 45  0  0  0  0  0  0  0  0999 V2000
   -0.2510   -7.6421   27.1699 C   0  0  0  0  0  0  0  0  0  0  0  0
    0.7444   -8.6477   26.6108 C   0  0  0  0  0  0  0  0  0  0  0  0
    0.1419  -10.0086   26.3668 C   0  0  0  0  0  0  0  0  0  0  0  0
    0.7531  -11.2435   26.2938 C   0  0  0  0  0  0  0  0  0  0  0  0
   -0.1563  -12.2509   26.0936 N   0  0  0  0  0  0  0  0  0  0  0  0
   -1.3577  -11.7049   26.1262 C   0  0  0  0  0  0  0  0  0  0  0  0
   -2.7013  -12.4594   25.9144 C   0  0  0  0  0  0  0  0  0  0  0  0
   -3.3709  -13.1445   27.1826 C   0  0  0  0  0  0  0  0  0  0  0  0
   -3.1555  -12.6639   28.2635 O   0  0  0  0  0  0  0  0  0  0  0  0
   -4.2378  -14.2911   26.7877 N   0  0  0  0  0  0  0  0  0  0  0  0
   -5.0436  -15.2787   27.6392 C   0  0  0  0  0  0  0  0  0  0  0  0
   -4.1074  -16.4146   28.0293 C   0  0  0  0  0  0  0  0  0  0  0  0
   -6.4233  -15.7837   26.9872 C   0  0  0  0  0  0  0  0  0  0  0  0
   -7.0655  -17.1251   27.2325 N   0  0  0  0  0  0  0  0  0  0  0  0
   -6.5528  -18.4895   27.0345 C   0  0  0  0  0  0  0  0  0  0  0  0
   -5.4596  -18.8683   26.7033 O   0  0  0  0  0  0  0  0  0  0  0  0
   -7.7006  -20.0246   27.4187 C   0  0  0  0  0  0  0  0  0  0  0  0
   -7.3401  -21.3709   27.4845 C   0  0  0  0  0  0  0  0  0  0  0  0
   -8.4524  -22.4276   27.8976 C   0  0  0  0  0  0  0  0  0  0  0  0
   -9.7913  -22.1950   28.2887 C   0  0  0  0  0  0  0  0  0  0  0  0
  -10.1934  -20.8983   28.2361 C   0  0  0  0  0  0  0  0  0  0  0  0
   -9.3160  -19.9028   27.7746 N   0  0  0  0  0  0  0  0  0  0  0  0
   -1.2064  -10.3227   26.2390 N   0  0  0  0  0  0  0  0  0  0  0  0
   -1.0578   -7.4423   26.4566 H   0  0  0  0  0  0  0  0  0  0  0  0
    0.2509   -6.6925   27.3814 H   0  0  0  0  0  0  0  0  0  0  0  0
   -0.7008   -8.0024   28.1013 H   0  0  0  0  0  0  0  0  0  0  0  0
    1.1812   -8.2409   25.7011 H   0  0  0  0  0  0  0  0  0  0  0  0
    1.5647   -8.7589   27.3310 H   0  0  0  0  0  0  0  0  0  0  0  0
    1.8040  -11.4787   26.3967 H   0  0  0  0  0  0  0  0  0  0  0  0
   -2.5152  -13.2320   25.1591 H   0  0  0  0  0  0  0  0  0  0  0  0
   -3.4369  -11.7580   25.5034 H   0  0  0  0  0  0  0  0  0  0  0  0
   -4.1170  -14.4745   25.7993 H   0  0  0  0  0  0  0  0  0  0  0  0
   -5.2957  -14.7326   28.5565 H   0  0  0  0  0  0  0  0  0  0  0  0
   -3.2123  -16.0236   28.5263 H   0  0  0  0  0  0  0  0  0  0  0  0
   -4.5893  -17.1059   28.7249 H   0  0  0  0  0  0  0  0  0  0  0  0
   -3.7684  -16.9664   27.1471 H   0  0  0  0  0  0  0  0  0  0  0  0
   -7.1952  -15.0339   27.1949 H   0  0  0  0  0  0  0  0  0  0  0  0
   -6.2693  -15.7727   25.9008 H   0  0  0  0  0  0  0  0  0  0  0  0
   -8.0131  -17.1765   27.5953 H   0  0  0  0  0  0  0  0  0  0  0  0
   -6.3183  -21.6359   27.2437 H   0  0  0  0  0  0  0  0  0  0  0  0
   -8.2317  -23.4875   27.9915 H   0  0  0  0  0  0  0  0  0  0  0  0
  -10.4490  -22.9933   28.6037 H   0  0  0  0  0  0  0  0  0  0  0  0
  -11.1896  -20.5681   28.4967 H   0  0  0  0  0  0  0  0  0  0  0  0
   -1.9752   -9.6746   26.3147 H   0  0  0  0  0  0  0  0  0  0  0  0
  1  2  1  0
  2  3  1  0
  3  4  2  0
  4  5  1  0
  5  6  2  0
  6  7  1  0
  7  8  1  0
  8  9  2  0
  8 10  1  0
 10 11  1  0
 11 12  1  0
 11 13  1  0
 13 14  1  0
 14 15  1  0
 15 16  2  0
 15 17  1  0
 17 18  2  0
 18 19  1  0
 19 20  2  0
 20 21  1  0
 21 22  2  0
  6 23  1  0
 23  3  1  0
 22 17  1  0
  1 24  1  0
  1 25  1  0
  1 26  1  0
  2 27  1  0
  2 28  1  0
  4 29  1  0
  7 30  1  0
  7 31  1  0
 10 32  1  0
 11 33  1  0
 12 34  1  0
 12 35  1  0
 12 36  1  0
 13 37  1  0
 13 38  1  0
 14 39  1  0
 18 40  1  0
 19 41  1  0
 20 42  1  0
 21 43  1  0
 23 44  1  0
M  END
>  <Energy>  (287) 
192.65284210061986

>  <compound_id>  (287) 
9625

>  <target_id>  (287) 
1

>  <reference_id>  (287) 
49

>  <inspiration_ids>  (287) 
[114, 49]

>  <energy_score>  (287) 
113.90159389285213

>  <distance_score>  (287) 
12.428293134091708

>  <path>  (287) 
/opt/xchem-fragalysis-2/maxwin/BulkDock/SCRATCH/511023/C9625-P49/C9625-P49.minimised.mol

>  <scratch_subdir>  (287) 
/opt/xchem-fragalysis-2/maxwin/BulkDock/SCRATCH/511023/C9625-P49

>  <fragmenstein_runtime>  (287) 
27.260570764541626

>  <fragmenstein_outcome>  (287) 
too moved

>  <fragmenstein_mode>  (287) 
expansion

>  <fragmenstein_error>  (287) 


$$$$
C8990-P114
     RDKit          3D

 41 42  0  0  0  0  0  0  0  0999 V2000
   -4.3046  -19.2306   24.5144 C   0  0  0  0  0  0  0  0  0  0  0  0
   -4.9625  -17.9612   23.9569 C   0  0  0  0  0  0  0  0  0  0  0  0
   -4.4590  -16.7528   24.7028 C   0  0  0  0  0  0  0  0  0  0  0  0
   -4.1554  -16.5024   26.0301 C   0  0  0  0  0  0  0  0  0  0  0  0
   -3.2402  -15.4834   26.1236 N   0  0  0  0  0  0  0  0  0  0  0  0
   -2.8730  -15.2467   24.8687 C   0  0  0  0  0  0  0  0  0  0  0  0
   -1.2246  -14.9175   24.3077 C   0  0  0  0  0  0  0  0  0  0  0  0
    0.1200  -14.0541   23.3423 C   0  0  0  0  0  0  0  0  0  0  0  0
   -0.1083  -13.0362   22.8311 O   0  0  0  0  0  0  0  0  0  0  0  0
    1.7335  -14.6702   23.3187 N   0  0  0  0  0  0  0  0  0  0  0  0
    3.0987  -14.0488   22.8048 C   0  0  0  0  0  0  0  0  0  0  0  0
    2.9582  -12.9559   23.7872 C   0  0  0  0  0  0  0  0  0  0  0  0
    3.9535  -13.1183   21.2117 C   0  0  0  0  0  0  0  0  0  0  0  0
    5.2085  -12.1914   20.1794 N   0  0  0  0  0  0  0  0  0  0  0  0
    6.7112  -12.1391   20.2364 C   0  0  0  0  0  0  0  0  0  0  0  0
    7.4346  -12.7767   20.9361 O   0  0  0  0  0  0  0  0  0  0  0  0
    7.7608  -10.8263   19.2234 C   0  0  0  0  0  0  0  0  0  0  0  0
    9.1581  -10.4027   19.2199 C   0  0  0  0  0  0  0  0  0  0  0  0
   10.2171  -10.4772   17.8197 S   0  0  0  0  0  0  0  0  0  0  0  0
    8.8316  -10.1733   16.9602 C   0  0  0  0  0  0  0  0  0  0  0  0
    7.7753  -10.5258   17.6688 N   0  0  0  0  0  0  0  0  0  0  0  0
   -3.9299  -15.6509   24.0485 N   0  0  0  0  0  0  0  0  0  0  0  0
   -4.7140  -19.4687   25.4968 H   0  0  0  0  0  0  0  0  0  0  0  0
   -4.4570  -20.0746   23.8348 H   0  0  0  0  0  0  0  0  0  0  0  0
   -3.2274  -19.1434   24.6760 H   0  0  0  0  0  0  0  0  0  0  0  0
   -4.7189  -17.8712   22.8896 H   0  0  0  0  0  0  0  0  0  0  0  0
   -6.0362  -18.0318   23.9156 H   0  0  0  0  0  0  0  0  0  0  0  0
   -4.4159  -17.0806   26.9090 H   0  0  0  0  0  0  0  0  0  0  0  0
   -1.3094  -14.0403   24.9755 H   0  0  0  0  0  0  0  0  0  0  0  0
   -1.6478  -14.9977   23.3450 H   0  0  0  0  0  0  0  0  0  0  0  0
    1.7298  -15.5354   23.7006 H   0  0  0  0  0  0  0  0  0  0  0  0
    3.6611  -14.9226   23.2220 H   0  0  0  0  0  0  0  0  0  0  0  0
    2.0759  -12.8847   24.4094 H   0  0  0  0  0  0  0  0  0  0  0  0
    3.6717  -13.2572   24.5080 H   0  0  0  0  0  0  0  0  0  0  0  0
    2.8904  -12.0244   23.2656 H   0  0  0  0  0  0  0  0  0  0  0  0
    3.3069  -13.4576   20.4852 H   0  0  0  0  0  0  0  0  0  0  0  0
    3.8466  -12.1945   21.7429 H   0  0  0  0  0  0  0  0  0  0  0  0
    4.8959  -11.6012   19.4325 H   0  0  0  0  0  0  0  0  0  0  0  0
    9.6115   -9.5705   19.7386 H   0  0  0  0  0  0  0  0  0  0  0  0
    8.7750   -9.8901   15.9171 H   0  0  0  0  0  0  0  0  0  0  0  0
   -3.8893  -15.5653   23.0404 H   0  0  0  0  0  0  0  0  0  0  0  0
  1  2  1  0
  2  3  1  0
  3  4  2  0
  4  5  1  0
  5  6  2  0
  6  7  1  0
  7  8  1  0
  8  9  2  0
  8 10  1  0
 10 11  1  0
 11 12  1  0
 11 13  1  0
 13 14  1  0
 14 15  1  0
 15 16  2  0
 15 17  1  0
 17 18  2  0
 18 19  1  0
 19 20  1  0
 20 21  2  0
  6 22  1  0
 22  3  1  0
 21 17  1  0
  1 23  1  0
  1 24  1  0
  1 25  1  0
  2 26  1  0
  2 27  1  0
  4 28  1  0
  7 29  1  0
  7 30  1  0
 10 31  1  0
 11 32  1  0
 12 33  1  0
 12 34  1  0
 12 35  1  0
 13 36  1  0
 13 37  1  0
 14 38  1  0
 18 39  1  0
 20 40  1  0
 22 41  1  0
M  END
>  <Energy>  (288) 
615.78549342787358

>  <compound_id>  (288) 
8990

>  <target_id>  (288) 
1

>  <reference_id>  (288) 
114

>  <inspiration_ids>  (288) 
[114, 49]

>  <energy_score>  (288) 
508.39705149996223

>  <distance_score>  (288) 
11.667586577660266

>  <path>  (288) 
/opt/xchem-fragalysis-2/maxwin/BulkDock/SCRATCH/511023/C8990-P114/C8990-P114.minimised.mol

>  <scratch_subdir>  (288) 
/opt/xchem-fragalysis-2/maxwin/BulkDock/SCRATCH/511023/C8990-P114

>  <fragmenstein_runtime>  (288) 
32.08892035484314

>  <fragmenstein_outcome>  (288) 
too moved

>  <fragmenstein_mode>  (288) 
expansion

>  <fragmenstein_error>  (288) 


$$$$
C8990-P49
     RDKit          3D

 41 42  0  0  0  0  0  0  0  0999 V2000
   -4.2100  -22.2483   24.5942 C   0  0  0  0  0  0  0  0  0  0  0  0
   -4.0278  -20.8624   24.0229 C   0  0  0  0  0  0  0  0  0  0  0  0
   -3.8225  -19.8089   25.0640 C   0  0  0  0  0  0  0  0  0  0  0  0
   -4.0816  -19.6381   26.4022 C   0  0  0  0  0  0  0  0  0  0  0  0
   -3.2920  -18.6185   26.9327 N   0  0  0  0  0  0  0  0  0  0  0  0
   -2.5699  -18.1063   25.9402 C   0  0  0  0  0  0  0  0  0  0  0  0
   -1.2501  -17.1550   26.0694 C   0  0  0  0  0  0  0  0  0  0  0  0
    0.3945  -16.5020   25.4051 C   0  0  0  0  0  0  0  0  0  0  0  0
    0.8712  -15.6887   26.2134 O   0  0  0  0  0  0  0  0  0  0  0  0
    1.3122  -16.7273   23.6479 N   0  0  0  0  0  0  0  0  0  0  0  0
    2.9929  -15.6601   22.6821 C   0  0  0  0  0  0  0  0  0  0  0  0
    3.3262  -16.3416   24.1053 C   0  0  0  0  0  0  0  0  0  0  0  0
    3.7389  -13.8101   21.4069 C   0  0  0  0  0  0  0  0  0  0  0  0
    4.5991  -12.7802   19.4847 N   0  0  0  0  0  0  0  0  0  0  0  0
    5.6918  -11.1352   19.2455 C   0  0  0  0  0  0  0  0  0  0  0  0
    6.2156  -10.3965   20.1933 O   0  0  0  0  0  0  0  0  0  0  0  0
    5.9147  -10.4823   17.9958 C   0  0  0  0  0  0  0  0  0  0  0  0
    7.1971   -9.8296   17.8360 C   0  0  0  0  0  0  0  0  0  0  0  0
    7.2155   -8.1431   17.7515 S   0  0  0  0  0  0  0  0  0  0  0  0
    5.5582   -8.2362   17.4814 C   0  0  0  0  0  0  0  0  0  0  0  0
    5.0338   -9.4208   17.7118 N   0  0  0  0  0  0  0  0  0  0  0  0
   -2.9993  -18.7554   24.7884 N   0  0  0  0  0  0  0  0  0  0  0  0
   -3.3309  -22.5492   25.1739 H   0  0  0  0  0  0  0  0  0  0  0  0
   -4.3539  -22.9776   23.7909 H   0  0  0  0  0  0  0  0  0  0  0  0
   -5.0799  -22.2852   25.2502 H   0  0  0  0  0  0  0  0  0  0  0  0
   -4.8277  -20.5914   23.3315 H   0  0  0  0  0  0  0  0  0  0  0  0
   -3.1284  -20.9000   23.3912 H   0  0  0  0  0  0  0  0  0  0  0  0
   -4.6735  -20.2749   27.0416 H   0  0  0  0  0  0  0  0  0  0  0  0
   -1.7983  -16.2690   25.6923 H   0  0  0  0  0  0  0  0  0  0  0  0
   -1.2648  -16.9008   27.1477 H   0  0  0  0  0  0  0  0  0  0  0  0
    0.8552  -17.4829   23.1383 H   0  0  0  0  0  0  0  0  0  0  0  0
    3.1648  -16.4753   22.0321 H   0  0  0  0  0  0  0  0  0  0  0  0
    3.0213  -17.3792   23.8710 H   0  0  0  0  0  0  0  0  0  0  0  0
    4.0995  -17.0308   24.4825 H   0  0  0  0  0  0  0  0  0  0  0  0
    2.8695  -15.8354   24.9538 H   0  0  0  0  0  0  0  0  0  0  0  0
    4.3425  -13.4717   22.2576 H   0  0  0  0  0  0  0  0  0  0  0  0
    2.8000  -13.2193   21.4732 H   0  0  0  0  0  0  0  0  0  0  0  0
    4.2634  -13.0904   18.5852 H   0  0  0  0  0  0  0  0  0  0  0  0
    8.1466  -10.3063   17.7002 H   0  0  0  0  0  0  0  0  0  0  0  0
    4.9559   -7.3811   17.2058 H   0  0  0  0  0  0  0  0  0  0  0  0
   -2.3970  -18.7524   23.9810 H   0  0  0  0  0  0  0  0  0  0  0  0
  1  2  1  0
  2  3  1  0
  3  4  2  0
  4  5  1  0
  5  6  2  0
  6  7  1  0
  7  8  1  0
  8  9  2  0
  8 10  1  0
 10 11  1  0
 11 12  1  0
 11 13  1  0
 13 14  1  0
 14 15  1  0
 15 16  2  0
 15 17  1  0
 17 18  2  0
 18 19  1  0
 19 20  1  0
 20 21  2  0
  6 22  1  0
 22  3  1  0
 21 17  1  0
  1 23  1  0
  1 24  1  0
  1 25  1  0
  2 26  1  0
  2 27  1  0
  4 28  1  0
  7 29  1  0
  7 30  1  0
 10 31  1  0
 11 32  1  0
 12 33  1  0
 12 34  1  0
 12 35  1  0
 13 36  1  0
 13 37  1  0
 14 38  1  0
 18 39  1  0
 20 40  1  0
 22 41  1  0
M  END
>  <Energy>  (289) 
1396.9076852426274

>  <compound_id>  (289) 
8990

>  <target_id>  (289) 
1

>  <reference_id>  (289) 
49

>  <inspiration_ids>  (289) 
[114, 49]

>  <energy_score>  (289) 
1289.5192433147288

>  <distance_score>  (289) 
10.651149724574168

>  <path>  (289) 
/opt/xchem-fragalysis-2/maxwin/BulkDock/SCRATCH/511023/C8990-P49/C8990-P49.minimised.mol

>  <scratch_subdir>  (289) 
/opt/xchem-fragalysis-2/maxwin/BulkDock/SCRATCH/511023/C8990-P49

>  <fragmenstein_runtime>  (289) 
14.865287065505981

>  <fragmenstein_outcome>  (289) 
too moved

>  <fragmenstein_mode>  (289) 
expansion

>  <fragmenstein_error>  (289) 


$$$$
C7727-P114
     RDKit          3D

 41 42  0  0  0  0  0  0  0  0999 V2000
   -3.0963  -23.3325   20.4676 C   0  0  0  0  0  0  0  0  0  0  0  0
   -3.9330  -22.1781   21.0025 C   0  0  0  0  0  0  0  0  0  0  0  0
   -3.1026  -21.0200   21.3758 C   0  0  0  0  0  0  0  0  0  0  0  0
   -2.1647  -20.8993   22.3655 C   0  0  0  0  0  0  0  0  0  0  0  0
   -1.5390  -19.6772   22.2725 N   0  0  0  0  0  0  0  0  0  0  0  0
   -2.0943  -18.9972   21.2608 C   0  0  0  0  0  0  0  0  0  0  0  0
   -1.7172  -17.5496   20.7077 C   0  0  0  0  0  0  0  0  0  0  0  0
   -0.4500  -16.1972   21.0900 C   0  0  0  0  0  0  0  0  0  0  0  0
    0.5755  -16.3491   20.4592 O   0  0  0  0  0  0  0  0  0  0  0  0
   -0.9631  -14.7832   22.1899 N   0  0  0  0  0  0  0  0  0  0  0  0
   -0.1076  -12.9656   22.5864 C   0  0  0  0  0  0  0  0  0  0  0  0
   -1.2341  -11.5963   21.4896 C   0  0  0  0  0  0  0  0  0  0  0  0
    1.8130  -11.9377   22.9336 C   0  0  0  0  0  0  0  0  0  0  0  0
    3.1821  -10.5734   22.8469 N   0  0  0  0  0  0  0  0  0  0  0  0
    3.0508   -8.6692   23.0518 C   0  0  0  0  0  0  0  0  0  0  0  0
    1.9848   -8.1090   23.1495 O   0  0  0  0  0  0  0  0  0  0  0  0
    4.6383   -7.5852   23.3425 C   0  0  0  0  0  0  0  0  0  0  0  0
    6.0459   -6.9017   23.0799 C   0  0  0  0  0  0  0  0  0  0  0  0
    6.9448   -6.2037   23.8896 N   0  0  0  0  0  0  0  0  0  0  0  0
    6.4393   -6.1844   25.0632 C   0  0  0  0  0  0  0  0  0  0  0  0
    5.0323   -7.0437   25.2764 S   0  0  0  0  0  0  0  0  0  0  0  0
   -3.0895  -19.8197   20.6912 N   0  0  0  0  0  0  0  0  0  0  0  0
   -2.5163  -23.0277   19.5896 H   0  0  0  0  0  0  0  0  0  0  0  0
   -3.7442  -24.1653   20.1761 H   0  0  0  0  0  0  0  0  0  0  0  0
   -2.3928  -23.6998   21.2226 H   0  0  0  0  0  0  0  0  0  0  0  0
   -4.4789  -22.5136   21.8893 H   0  0  0  0  0  0  0  0  0  0  0  0
   -4.6252  -21.8674   20.2147 H   0  0  0  0  0  0  0  0  0  0  0  0
   -1.8624  -21.6278   23.1075 H   0  0  0  0  0  0  0  0  0  0  0  0
   -1.6618  -17.6030   19.6125 H   0  0  0  0  0  0  0  0  0  0  0  0
   -2.7107  -17.0520   20.5981 H   0  0  0  0  0  0  0  0  0  0  0  0
   -1.8386  -14.9966   22.6346 H   0  0  0  0  0  0  0  0  0  0  0  0
   -0.2342  -13.6774   23.4510 H   0  0  0  0  0  0  0  0  0  0  0  0
   -1.2434  -11.8651   20.4133 H   0  0  0  0  0  0  0  0  0  0  0  0
   -0.7402  -10.6144   21.6337 H   0  0  0  0  0  0  0  0  0  0  0  0
   -2.3163  -11.4514   21.4991 H   0  0  0  0  0  0  0  0  0  0  0  0
    1.7642  -11.9247   24.0256 H   0  0  0  0  0  0  0  0  0  0  0  0
    2.6951  -12.6626   23.0683 H   0  0  0  0  0  0  0  0  0  0  0  0
    4.1719  -10.8322   22.6921 H   0  0  0  0  0  0  0  0  0  0  0  0
    6.5471   -7.0034   22.1313 H   0  0  0  0  0  0  0  0  0  0  0  0
    6.9258   -5.6770   25.8851 H   0  0  0  0  0  0  0  0  0  0  0  0
   -3.6342  -19.5874   19.8724 H   0  0  0  0  0  0  0  0  0  0  0  0
  1  2  1  0
  2  3  1  0
  3  4  2  0
  4  5  1  0
  5  6  2  0
  6  7  1  0
  7  8  1  0
  8  9  2  0
  8 10  1  0
 10 11  1  0
 11 12  1  0
 11 13  1  0
 13 14  1  0
 14 15  1  0
 15 16  2  0
 15 17  1  0
 17 18  2  0
 18 19  1  0
 19 20  2  0
 20 21  1  0
  6 22  1  0
 22  3  1  0
 21 17  1  0
  1 23  1  0
  1 24  1  0
  1 25  1  0
  2 26  1  0
  2 27  1  0
  4 28  1  0
  7 29  1  0
  7 30  1  0
 10 31  1  0
 11 32  1  0
 12 33  1  0
 12 34  1  0
 12 35  1  0
 13 36  1  0
 13 37  1  0
 14 38  1  0
 18 39  1  0
 20 40  1  0
 22 41  1  0
M  END
>  <Energy>  (290) 
849.30316354898673

>  <compound_id>  (290) 
7727

>  <target_id>  (290) 
1

>  <reference_id>  (290) 
114

>  <inspiration_ids>  (290) 
[114, 49]

>  <energy_score>  (290) 
798.8700063318727

>  <distance_score>  (290) 
12.57026375572026

>  <path>  (290) 
/opt/xchem-fragalysis-2/maxwin/BulkDock/SCRATCH/511023/C7727-P114/C7727-P114.minimised.mol

>  <scratch_subdir>  (290) 
/opt/xchem-fragalysis-2/maxwin/BulkDock/SCRATCH/511023/C7727-P114

>  <fragmenstein_runtime>  (290) 
21.815393209457397

>  <fragmenstein_outcome>  (290) 
too moved

>  <fragmenstein_mode>  (290) 
expansion

>  <fragmenstein_error>  (290) 


$$$$
C7727-P49
     RDKit          3D

 41 42  0  0  0  0  0  0  0  0999 V2000
   -5.2338  -21.5930   26.7756 C   0  0  0  0  0  0  0  0  0  0  0  0
   -4.1551  -21.5760   25.7419 C   0  0  0  0  0  0  0  0  0  0  0  0
   -3.2938  -20.4997   26.2043 C   0  0  0  0  0  0  0  0  0  0  0  0
   -2.5558  -20.3592   27.3485 C   0  0  0  0  0  0  0  0  0  0  0  0
   -1.9002  -19.1698   27.3029 N   0  0  0  0  0  0  0  0  0  0  0  0
   -2.3276  -18.5063   26.2285 C   0  0  0  0  0  0  0  0  0  0  0  0
   -1.7736  -17.1901   25.5178 C   0  0  0  0  0  0  0  0  0  0  0  0
   -0.1344  -16.6677   25.3563 C   0  0  0  0  0  0  0  0  0  0  0  0
    0.1345  -15.9672   26.2758 O   0  0  0  0  0  0  0  0  0  0  0  0
    1.1383  -16.8910   23.9588 N   0  0  0  0  0  0  0  0  0  0  0  0
    2.9314  -15.9826   23.6687 C   0  0  0  0  0  0  0  0  0  0  0  0
    2.8088  -15.4114   25.3794 C   0  0  0  0  0  0  0  0  0  0  0  0
    4.0727  -14.2522   22.9398 C   0  0  0  0  0  0  0  0  0  0  0  0
    4.1439  -12.5563   23.9827 N   0  0  0  0  0  0  0  0  0  0  0  0
    5.2498  -11.0771   23.8443 C   0  0  0  0  0  0  0  0  0  0  0  0
    6.0758  -10.9246   22.9709 O   0  0  0  0  0  0  0  0  0  0  0  0
    5.3654   -9.9134   24.8792 C   0  0  0  0  0  0  0  0  0  0  0  0
    6.2104   -9.3446   25.8638 C   0  0  0  0  0  0  0  0  0  0  0  0
    7.5764   -9.4330   25.6632 N   0  0  0  0  0  0  0  0  0  0  0  0
    7.7849   -8.9616   24.4627 C   0  0  0  0  0  0  0  0  0  0  0  0
    6.3230   -8.3618   23.7885 S   0  0  0  0  0  0  0  0  0  0  0  0
   -3.2793  -19.2818   25.6058 N   0  0  0  0  0  0  0  0  0  0  0  0
   -5.4273  -20.6039   27.1825 H   0  0  0  0  0  0  0  0  0  0  0  0
   -4.9046  -22.1569   27.6415 H   0  0  0  0  0  0  0  0  0  0  0  0
   -6.1649  -21.9654   26.3601 H   0  0  0  0  0  0  0  0  0  0  0  0
   -4.5333  -21.3785   24.7366 H   0  0  0  0  0  0  0  0  0  0  0  0
   -3.6002  -22.5149   25.6873 H   0  0  0  0  0  0  0  0  0  0  0  0
   -2.4116  -21.0608   28.1595 H   0  0  0  0  0  0  0  0  0  0  0  0
   -2.0827  -16.4513   26.2704 H   0  0  0  0  0  0  0  0  0  0  0  0
   -2.3468  -16.7301   24.7512 H   0  0  0  0  0  0  0  0  0  0  0  0
    0.7835  -17.5881   23.2963 H   0  0  0  0  0  0  0  0  0  0  0  0
    3.4730  -16.8913   23.9341 H   0  0  0  0  0  0  0  0  0  0  0  0
    3.0567  -16.3037   25.9079 H   0  0  0  0  0  0  0  0  0  0  0  0
    1.9078  -15.0719   25.8597 H   0  0  0  0  0  0  0  0  0  0  0  0
    3.4033  -14.5527   25.6777 H   0  0  0  0  0  0  0  0  0  0  0  0
    3.6152  -13.8617   22.0148 H   0  0  0  0  0  0  0  0  0  0  0  0
    5.0991  -14.4933   22.6715 H   0  0  0  0  0  0  0  0  0  0  0  0
    3.4892  -12.4134   24.7409 H   0  0  0  0  0  0  0  0  0  0  0  0
    5.8399   -9.0415   26.8402 H   0  0  0  0  0  0  0  0  0  0  0  0
    8.7656   -8.8208   24.0291 H   0  0  0  0  0  0  0  0  0  0  0  0
   -3.8366  -18.9687   24.8254 H   0  0  0  0  0  0  0  0  0  0  0  0
  1  2  1  0
  2  3  1  0
  3  4  2  0
  4  5  1  0
  5  6  2  0
  6  7  1  0
  7  8  1  0
  8  9  2  0
  8 10  1  0
 10 11  1  0
 11 12  1  0
 11 13  1  0
 13 14  1  0
 14 15  1  0
 15 16  2  0
 15 17  1  0
 17 18  2  0
 18 19  1  0
 19 20  2  0
 20 21  1  0
  6 22  1  0
 22  3  1  0
 21 17  1  0
  1 23  1  0
  1 24  1  0
  1 25  1  0
  2 26  1  0
  2 27  1  0
  4 28  1  0
  7 29  1  0
  7 30  1  0
 10 31  1  0
 11 32  1  0
 12 33  1  0
 12 34  1  0
 12 35  1  0
 13 36  1  0
 13 37  1  0
 14 38  1  0
 18 39  1  0
 20 40  1  0
 22 41  1  0
M  END
>  <Energy>  (291) 
659.66157783782899

>  <compound_id>  (291) 
7727

>  <target_id>  (291) 
1

>  <reference_id>  (291) 
49

>  <inspiration_ids>  (291) 
[114, 49]

>  <energy_score>  (291) 
609.22842062071

>  <distance_score>  (291) 
12.033662416564908

>  <path>  (291) 
/opt/xchem-fragalysis-2/maxwin/BulkDock/SCRATCH/511023/C7727-P49/C7727-P49.minimised.mol

>  <scratch_subdir>  (291) 
/opt/xchem-fragalysis-2/maxwin/BulkDock/SCRATCH/511023/C7727-P49

>  <fragmenstein_runtime>  (291) 
22.280898332595825

>  <fragmenstein_outcome>  (291) 
too moved

>  <fragmenstein_mode>  (291) 
expansion

>  <fragmenstein_error>  (291) 


$$$$
C7728-P114
     RDKit          3D

 38 39  0  0  0  0  0  0  0  0999 V2000
    3.4058  -13.5095   21.5080 C   0  0  0  0  0  0  0  0  0  0  0  0
    3.2867  -12.9778   23.1658 C   0  0  0  0  0  0  0  0  0  0  0  0
    4.3291  -11.7664   21.8990 C   0  0  0  0  0  0  0  0  0  0  0  0
    6.0420  -11.8403   20.9353 N   0  0  0  0  0  0  0  0  0  0  0  0
    6.6362  -11.0259   19.4126 C   0  0  0  0  0  0  0  0  0  0  0  0
    5.8202  -10.4441   18.9015 O   0  0  0  0  0  0  0  0  0  0  0  0
    8.2854  -10.7031   18.5002 C   0  0  0  0  0  0  0  0  0  0  0  0
    9.6524  -11.1898   18.0683 C   0  0  0  0  0  0  0  0  0  0  0  0
   10.5552  -10.3217   17.4969 N   0  0  0  0  0  0  0  0  0  0  0  0
    9.8735   -9.5924   16.6833 C   0  0  0  0  0  0  0  0  0  0  0  0
    8.2517   -9.9465   16.5697 S   0  0  0  0  0  0  0  0  0  0  0  0
    1.6235  -13.7746   23.7162 N   0  0  0  0  0  0  0  0  0  0  0  0
    0.8601  -13.7739   25.1665 C   0  0  0  0  0  0  0  0  0  0  0  0
    1.2256  -13.3500   26.2448 O   0  0  0  0  0  0  0  0  0  0  0  0
   -0.9747  -14.5130   24.6885 C   0  0  0  0  0  0  0  0  0  0  0  0
   -2.5856  -14.9480   25.6044 C   0  0  0  0  0  0  0  0  0  0  0  0
   -3.0013  -16.2101   25.8728 N   0  0  0  0  0  0  0  0  0  0  0  0
   -3.9855  -16.1893   26.8300 C   0  0  0  0  0  0  0  0  0  0  0  0
   -4.4173  -14.9153   26.9741 C   0  0  0  0  0  0  0  0  0  0  0  0
   -3.6152  -14.1501   26.1452 N   0  0  0  0  0  0  0  0  0  0  0  0
   -3.9531  -12.7656   26.0097 C   0  0  0  0  0  0  0  0  0  0  0  0
    4.3163  -13.3151   20.9098 H   0  0  0  0  0  0  0  0  0  0  0  0
    2.7567  -13.8585   20.7103 H   0  0  0  0  0  0  0  0  0  0  0  0
    3.2784  -14.4954   21.9516 H   0  0  0  0  0  0  0  0  0  0  0  0
    2.6934  -12.0778   23.3324 H   0  0  0  0  0  0  0  0  0  0  0  0
    3.8234  -10.9075   22.1997 H   0  0  0  0  0  0  0  0  0  0  0  0
    4.9528  -11.1331   22.6148 H   0  0  0  0  0  0  0  0  0  0  0  0
    6.7915  -12.4087   21.2903 H   0  0  0  0  0  0  0  0  0  0  0  0
   10.1757  -12.0555   18.4267 H   0  0  0  0  0  0  0  0  0  0  0  0
   10.3148   -8.8361   16.0860 H   0  0  0  0  0  0  0  0  0  0  0  0
    1.0355  -14.3297   22.9999 H   0  0  0  0  0  0  0  0  0  0  0  0
   -1.3416  -13.5661   25.1330 H   0  0  0  0  0  0  0  0  0  0  0  0
   -1.0904  -14.7125   23.6369 H   0  0  0  0  0  0  0  0  0  0  0  0
   -4.3657  -17.0907   27.2953 H   0  0  0  0  0  0  0  0  0  0  0  0
   -5.2129  -14.4868   27.5683 H   0  0  0  0  0  0  0  0  0  0  0  0
   -4.1383  -12.3399   27.0008 H   0  0  0  0  0  0  0  0  0  0  0  0
   -3.1463  -12.2121   25.5457 H   0  0  0  0  0  0  0  0  0  0  0  0
   -4.8634  -12.6842   25.4112 H   0  0  0  0  0  0  0  0  0  0  0  0
  1  2  1  0
  2  3  1  0
  3  4  1  0
  4  5  1  0
  5  6  2  0
  5  7  1  0
  7  8  2  0
  8  9  1  0
  9 10  2  0
 10 11  1  0
  2 12  1  0
 12 13  1  0
 13 14  2  0
 13 15  1  0
 15 16  1  0
 16 17  2  0
 17 18  1  0
 18 19  2  0
 19 20  1  0
 20 21  1  0
 11  7  1  0
 20 16  1  0
  1 22  1  0
  1 23  1  0
  1 24  1  0
  2 25  1  0
  3 26  1  0
  3 27  1  0
  4 28  1  0
  8 29  1  0
 10 30  1  0
 12 31  1  0
 15 32  1  0
 15 33  1  0
 18 34  1  0
 19 35  1  0
 21 36  1  0
 21 37  1  0
 21 38  1  0
M  END
>  <Energy>  (292) 
772.56160438013467

>  <compound_id>  (292) 
7728

>  <target_id>  (292) 
1

>  <reference_id>  (292) 
114

>  <inspiration_ids>  (292) 
[114, 49]

>  <energy_score>  (292) 
686.4101343525086

>  <distance_score>  (292) 
12.280424706962048

>  <path>  (292) 
/opt/xchem-fragalysis-2/maxwin/BulkDock/SCRATCH/511023/C7728-P114/C7728-P114.minimised.mol

>  <scratch_subdir>  (292) 
/opt/xchem-fragalysis-2/maxwin/BulkDock/SCRATCH/511023/C7728-P114

>  <fragmenstein_runtime>  (292) 
21.03567385673523

>  <fragmenstein_outcome>  (292) 
too moved

>  <fragmenstein_mode>  (292) 
expansion

>  <fragmenstein_error>  (292) 


$$$$
C7728-P49
     RDKit          3D

 38 39  0  0  0  0  0  0  0  0999 V2000
   -5.0774   -9.4339   23.8853 C   0  0  0  0  0  0  0  0  0  0  0  0
   -6.3126   -9.7378   23.0503 C   0  0  0  0  0  0  0  0  0  0  0  0
   -6.2150   -9.2313   21.5429 C   0  0  0  0  0  0  0  0  0  0  0  0
   -4.9935   -8.6111   20.9606 N   0  0  0  0  0  0  0  0  0  0  0  0
   -4.4085   -7.2976   21.1551 C   0  0  0  0  0  0  0  0  0  0  0  0
   -4.7179   -6.4105   21.8947 O   0  0  0  0  0  0  0  0  0  0  0  0
   -3.2013   -7.0310   20.2936 C   0  0  0  0  0  0  0  0  0  0  0  0
   -2.3972   -5.8855   20.3006 C   0  0  0  0  0  0  0  0  0  0  0  0
   -1.2576   -5.8880   19.5049 N   0  0  0  0  0  0  0  0  0  0  0  0
   -1.1744   -7.0513   18.9013 C   0  0  0  0  0  0  0  0  0  0  0  0
   -2.4982   -8.1262   19.1657 S   0  0  0  0  0  0  0  0  0  0  0  0
   -6.7061  -11.1778   23.2082 N   0  0  0  0  0  0  0  0  0  0  0  0
   -6.9429  -11.9863   24.4176 C   0  0  0  0  0  0  0  0  0  0  0  0
   -6.8029  -11.7144   25.5796 O   0  0  0  0  0  0  0  0  0  0  0  0
   -7.3427  -13.4546   24.0500 C   0  0  0  0  0  0  0  0  0  0  0  0
   -8.4081  -14.0794   24.9436 C   0  0  0  0  0  0  0  0  0  0  0  0
   -9.6971  -14.0921   24.6323 N   0  0  0  0  0  0  0  0  0  0  0  0
  -10.3492  -14.7131   25.6603 C   0  0  0  0  0  0  0  0  0  0  0  0
   -9.4551  -15.1651   26.5915 C   0  0  0  0  0  0  0  0  0  0  0  0
   -8.2203  -14.8090   26.1081 N   0  0  0  0  0  0  0  0  0  0  0  0
   -6.9970  -15.1864   26.7719 C   0  0  0  0  0  0  0  0  0  0  0  0
   -5.2744   -9.6060   24.9490 H   0  0  0  0  0  0  0  0  0  0  0  0
   -4.7650   -8.3918   23.7850 H   0  0  0  0  0  0  0  0  0  0  0  0
   -4.2493  -10.0869   23.6112 H   0  0  0  0  0  0  0  0  0  0  0  0
   -7.1509   -9.1948   23.5059 H   0  0  0  0  0  0  0  0  0  0  0  0
   -6.9873   -8.4601   21.4276 H   0  0  0  0  0  0  0  0  0  0  0  0
   -6.4946  -10.0449   20.8653 H   0  0  0  0  0  0  0  0  0  0  0  0
   -4.5236   -9.0714   20.1879 H   0  0  0  0  0  0  0  0  0  0  0  0
   -2.6014   -5.0120   20.9106 H   0  0  0  0  0  0  0  0  0  0  0  0
   -0.3384   -7.3307   18.2719 H   0  0  0  0  0  0  0  0  0  0  0  0
   -7.0105  -11.7005   22.3946 H   0  0  0  0  0  0  0  0  0  0  0  0
   -6.4285  -14.0571   24.0787 H   0  0  0  0  0  0  0  0  0  0  0  0
   -7.7158  -13.4899   23.0202 H   0  0  0  0  0  0  0  0  0  0  0  0
  -11.4269  -14.7861   25.6705 H   0  0  0  0  0  0  0  0  0  0  0  0
   -9.5785  -15.6965   27.5229 H   0  0  0  0  0  0  0  0  0  0  0  0
   -6.1714  -14.5814   26.3920 H   0  0  0  0  0  0  0  0  0  0  0  0
   -7.1088  -15.0130   27.8457 H   0  0  0  0  0  0  0  0  0  0  0  0
   -6.8117  -16.2444   26.5751 H   0  0  0  0  0  0  0  0  0  0  0  0
  1  2  1  0
  2  3  1  0
  3  4  1  0
  4  5  1  0
  5  6  2  0
  5  7  1  0
  7  8  2  0
  8  9  1  0
  9 10  2  0
 10 11  1  0
  2 12  1  0
 12 13  1  0
 13 14  2  0
 13 15  1  0
 15 16  1  0
 16 17  2  0
 17 18  1  0
 18 19  2  0
 19 20  1  0
 20 21  1  0
 11  7  1  0
 20 16  1  0
  1 22  1  0
  1 23  1  0
  1 24  1  0
  2 25  1  0
  3 26  1  0
  3 27  1  0
  4 28  1  0
  8 29  1  0
 10 30  1  0
 12 31  1  0
 15 32  1  0
 15 33  1  0
 18 34  1  0
 19 35  1  0
 21 36  1  0
 21 37  1  0
 21 38  1  0
M  END
>  <Energy>  (293) 
31.825153636421803

>  <compound_id>  (293) 
7728

>  <target_id>  (293) 
1

>  <reference_id>  (293) 
49

>  <inspiration_ids>  (293) 
[114, 49]

>  <energy_score>  (293) 
-54.32631639121462

>  <distance_score>  (293) 
13.075694611693699

>  <path>  (293) 
/opt/xchem-fragalysis-2/maxwin/BulkDock/SCRATCH/511023/C7728-P49/C7728-P49.minimised.mol

>  <scratch_subdir>  (293) 
/opt/xchem-fragalysis-2/maxwin/BulkDock/SCRATCH/511023/C7728-P49

>  <fragmenstein_runtime>  (293) 
36.22964310646057

>  <fragmenstein_outcome>  (293) 
too moved

>  <fragmenstein_mode>  (293) 
expansion

>  <fragmenstein_error>  (293) 


$$$$
C46406-P114
     RDKit          3D

 38 39  0  0  0  0  0  0  0  0999 V2000
   -2.3081  -15.8524   19.5492 C   0  0  0  0  0  0  0  0  0  0  0  0
   -2.4928  -16.8434   20.5205 C   0  0  0  0  0  0  0  0  0  0  0  0
   -0.4002  -16.8783   20.9757 C   0  0  0  0  0  0  0  0  0  0  0  0
    1.0586  -15.8022   20.2072 N   0  0  0  0  0  0  0  0  0  0  0  0
    2.5067  -14.7146   21.0091 C   0  0  0  0  0  0  0  0  0  0  0  0
    2.7089  -14.7071   22.3027 O   0  0  0  0  0  0  0  0  0  0  0  0
    3.6591  -13.4255   20.2329 C   0  0  0  0  0  0  0  0  0  0  0  0
    4.2069  -12.5883   21.1674 C   0  0  0  0  0  0  0  0  0  0  0  0
    5.3531  -12.0250   20.7670 O   0  0  0  0  0  0  0  0  0  0  0  0
    5.4130  -12.5082   19.5520 C   0  0  0  0  0  0  0  0  0  0  0  0
    4.4606  -13.3259   19.1438 N   0  0  0  0  0  0  0  0  0  0  0  0
   -3.9696  -16.7483   21.9081 N   0  0  0  0  0  0  0  0  0  0  0  0
   -5.6225  -17.7332   22.0591 C   0  0  0  0  0  0  0  0  0  0  0  0
   -6.1348  -18.5188   21.2509 O   0  0  0  0  0  0  0  0  0  0  0  0
   -6.4951  -17.5576   23.9391 C   0  0  0  0  0  0  0  0  0  0  0  0
   -6.1872  -18.5789   25.8998 C   0  0  0  0  0  0  0  0  0  0  0  0
   -6.0210  -17.6747   27.0455 N   0  0  0  0  0  0  0  0  0  0  0  0
   -4.7988  -17.8603   27.7851 C   0  0  0  0  0  0  0  0  0  0  0  0
   -4.1631  -19.0146   27.4050 C   0  0  0  0  0  0  0  0  0  0  0  0
   -5.0822  -19.7615   26.5755 N   0  0  0  0  0  0  0  0  0  0  0  0
   -4.4183  -20.8917   25.8833 C   0  0  0  0  0  0  0  0  0  0  0  0
   -2.4885  -15.0256   20.1835 H   0  0  0  0  0  0  0  0  0  0  0  0
   -1.3361  -15.5727   19.2632 H   0  0  0  0  0  0  0  0  0  0  0  0
   -2.7263  -16.3183   18.6619 H   0  0  0  0  0  0  0  0  0  0  0  0
   -2.6498  -17.8254   20.0587 H   0  0  0  0  0  0  0  0  0  0  0  0
   -0.1200  -17.7240   21.5882 H   0  0  0  0  0  0  0  0  0  0  0  0
   -0.2943  -17.5310   20.0873 H   0  0  0  0  0  0  0  0  0  0  0  0
    1.1281  -15.7450   19.1799 H   0  0  0  0  0  0  0  0  0  0  0  0
    3.7993  -12.3024   22.1337 H   0  0  0  0  0  0  0  0  0  0  0  0
    6.1611  -11.9991   19.0074 H   0  0  0  0  0  0  0  0  0  0  0  0
   -3.8324  -16.1680   22.7387 H   0  0  0  0  0  0  0  0  0  0  0  0
   -6.7825  -16.5096   24.2186 H   0  0  0  0  0  0  0  0  0  0  0  0
   -7.4322  -17.8930   23.3746 H   0  0  0  0  0  0  0  0  0  0  0  0
   -4.5149  -17.1513   28.5491 H   0  0  0  0  0  0  0  0  0  0  0  0
   -3.2225  -19.4517   27.7117 H   0  0  0  0  0  0  0  0  0  0  0  0
   -4.5302  -20.8146   24.8020 H   0  0  0  0  0  0  0  0  0  0  0  0
   -4.7878  -21.8290   26.3056 H   0  0  0  0  0  0  0  0  0  0  0  0
   -3.3416  -20.8511   26.0809 H   0  0  0  0  0  0  0  0  0  0  0  0
  1  2  1  0
  2  3  1  0
  3  4  1  0
  4  5  1  0
  5  6  2  0
  5  7  1  0
  7  8  2  0
  8  9  1  0
  9 10  1  0
 10 11  2  0
  2 12  1  0
 12 13  1  0
 13 14  2  0
 13 15  1  0
 15 16  1  0
 16 17  2  0
 17 18  1  0
 18 19  2  0
 19 20  1  0
 20 21  1  0
 11  7  1  0
 20 16  1  0
  1 22  1  0
  1 23  1  0
  1 24  1  0
  2 25  1  0
  3 26  1  0
  3 27  1  0
  4 28  1  0
  8 29  1  0
 10 30  1  0
 12 31  1  0
 15 32  1  0
 15 33  1  0
 18 34  1  0
 19 35  1  0
 21 36  1  0
 21 37  1  0
 21 38  1  0
M  END
>  <Energy>  (294) 
961.94432831585675

>  <compound_id>  (294) 
46406

>  <target_id>  (294) 
1

>  <reference_id>  (294) 
114

>  <inspiration_ids>  (294) 
[114, 49]

>  <energy_score>  (294) 
898.2743728850749

>  <distance_score>  (294) 
11.594896373032155

>  <path>  (294) 
/opt/xchem-fragalysis-2/maxwin/BulkDock/SCRATCH/511023/C46406-P114/C46406-P114.minimised.mol

>  <scratch_subdir>  (294) 
/opt/xchem-fragalysis-2/maxwin/BulkDock/SCRATCH/511023/C46406-P114

>  <fragmenstein_runtime>  (294) 
29.107518196105957

>  <fragmenstein_outcome>  (294) 
too moved

>  <fragmenstein_mode>  (294) 
expansion

>  <fragmenstein_error>  (294) 


$$$$
C46406-P49
     RDKit          3D

 38 39  0  0  0  0  0  0  0  0999 V2000
    0.5791  -15.5433   26.7728 C   0  0  0  0  0  0  0  0  0  0  0  0
    1.0499  -14.2652   27.4869 C   0  0  0  0  0  0  0  0  0  0  0  0
    2.0537  -13.0392   26.3214 C   0  0  0  0  0  0  0  0  0  0  0  0
    3.5224  -12.2857   25.5398 N   0  0  0  0  0  0  0  0  0  0  0  0
    4.3548  -10.8021   25.8783 C   0  0  0  0  0  0  0  0  0  0  0  0
    4.0621   -9.9561   26.6967 O   0  0  0  0  0  0  0  0  0  0  0  0
    5.6572  -10.2809   24.9776 C   0  0  0  0  0  0  0  0  0  0  0  0
    5.9750  -10.1181   23.6430 C   0  0  0  0  0  0  0  0  0  0  0  0
    7.0983   -9.3617   23.4648 O   0  0  0  0  0  0  0  0  0  0  0  0
    7.4203   -8.9856   24.7180 C   0  0  0  0  0  0  0  0  0  0  0  0
    6.6013   -9.4359   25.6362 N   0  0  0  0  0  0  0  0  0  0  0  0
    0.5244  -14.0411   29.0884 N   0  0  0  0  0  0  0  0  0  0  0  0
    0.7459  -14.8716   30.3228 C   0  0  0  0  0  0  0  0  0  0  0  0
    1.4200  -15.8580   30.4945 O   0  0  0  0  0  0  0  0  0  0  0  0
   -0.1392  -14.4221   31.5589 C   0  0  0  0  0  0  0  0  0  0  0  0
   -1.4644  -15.2081   31.8289 C   0  0  0  0  0  0  0  0  0  0  0  0
   -2.6642  -14.6306   31.7726 N   0  0  0  0  0  0  0  0  0  0  0  0
   -3.6081  -15.6027   32.0032 C   0  0  0  0  0  0  0  0  0  0  0  0
   -2.9968  -16.8014   32.2467 C   0  0  0  0  0  0  0  0  0  0  0  0
   -1.6484  -16.5544   32.1197 N   0  0  0  0  0  0  0  0  0  0  0  0
   -0.6619  -17.5979   32.1991 C   0  0  0  0  0  0  0  0  0  0  0  0
    0.4451  -16.1504   27.6274 H   0  0  0  0  0  0  0  0  0  0  0  0
   -0.4049  -15.8026   26.3170 H   0  0  0  0  0  0  0  0  0  0  0  0
    1.3752  -15.8188   26.1052 H   0  0  0  0  0  0  0  0  0  0  0  0
    1.8431  -14.7572   27.9603 H   0  0  0  0  0  0  0  0  0  0  0  0
    1.3251  -12.7697   25.5818 H   0  0  0  0  0  0  0  0  0  0  0  0
    2.6325  -13.9925   26.1735 H   0  0  0  0  0  0  0  0  0  0  0  0
    3.9512  -12.7412   24.7527 H   0  0  0  0  0  0  0  0  0  0  0  0
    5.5054  -10.3148   22.7135 H   0  0  0  0  0  0  0  0  0  0  0  0
    8.2885   -8.3541   24.8417 H   0  0  0  0  0  0  0  0  0  0  0  0
   -0.1721  -13.3317   29.2857 H   0  0  0  0  0  0  0  0  0  0  0  0
   -0.3902  -13.3616   31.4383 H   0  0  0  0  0  0  0  0  0  0  0  0
    0.4888  -14.4949   32.4551 H   0  0  0  0  0  0  0  0  0  0  0  0
   -4.6684  -15.3853   31.9854 H   0  0  0  0  0  0  0  0  0  0  0  0
   -3.3973  -17.7836   32.4576 H   0  0  0  0  0  0  0  0  0  0  0  0
   -1.0602  -18.4406   32.7703 H   0  0  0  0  0  0  0  0  0  0  0  0
   -0.4119  -17.9162   31.1843 H   0  0  0  0  0  0  0  0  0  0  0  0
    0.2236  -17.2070   32.7062 H   0  0  0  0  0  0  0  0  0  0  0  0
  1  2  1  0
  2  3  1  0
  3  4  1  0
  4  5  1  0
  5  6  2  0
  5  7  1  0
  7  8  2  0
  8  9  1  0
  9 10  1  0
 10 11  2  0
  2 12  1  0
 12 13  1  0
 13 14  2  0
 13 15  1  0
 15 16  1  0
 16 17  2  0
 17 18  1  0
 18 19  2  0
 19 20  1  0
 20 21  1  0
 11  7  1  0
 20 16  1  0
  1 22  1  0
  1 23  1  0
  1 24  1  0
  2 25  1  0
  3 26  1  0
  3 27  1  0
  4 28  1  0
  8 29  1  0
 10 30  1  0
 12 31  1  0
 15 32  1  0
 15 33  1  0
 18 34  1  0
 19 35  1  0
 21 36  1  0
 21 37  1  0
 21 38  1  0
M  END
>  <Energy>  (295) 
313.99682306979832

>  <compound_id>  (295) 
46406

>  <target_id>  (295) 
1

>  <reference_id>  (295) 
49

>  <inspiration_ids>  (295) 
[114, 49]

>  <energy_score>  (295) 
250.3268676390178

>  <distance_score>  (295) 
13.23618882522291

>  <path>  (295) 
/opt/xchem-fragalysis-2/maxwin/BulkDock/SCRATCH/511023/C46406-P49/C46406-P49.minimised.mol

>  <scratch_subdir>  (295) 
/opt/xchem-fragalysis-2/maxwin/BulkDock/SCRATCH/511023/C46406-P49

>  <fragmenstein_runtime>  (295) 
21.923518180847168

>  <fragmenstein_outcome>  (295) 
too moved

>  <fragmenstein_mode>  (295) 
expansion

>  <fragmenstein_error>  (295) 


$$$$
C46407-P114
     RDKit          3D

 38 39  0  0  0  0  0  0  0  0999 V2000
   -0.9299  -14.8269   22.6209 C   0  0  0  0  0  0  0  0  0  0  0  0
   -1.1820  -14.9093   24.3445 C   0  0  0  0  0  0  0  0  0  0  0  0
    0.5997  -14.0782   24.7568 C   0  0  0  0  0  0  0  0  0  0  0  0
    1.7444  -13.1809   23.9441 N   0  0  0  0  0  0  0  0  0  0  0  0
    3.0177  -13.4943   23.5549 C   0  0  0  0  0  0  0  0  0  0  0  0
    3.6754  -14.4547   23.7800 O   0  0  0  0  0  0  0  0  0  0  0  0
    3.6097  -12.3221   22.4642 C   0  0  0  0  0  0  0  0  0  0  0  0
    3.8058  -12.9749   21.1812 C   0  0  0  0  0  0  0  0  0  0  0  0
    4.8447  -12.7423   20.3516 N   0  0  0  0  0  0  0  0  0  0  0  0
    5.3501  -11.7332   20.9367 C   0  0  0  0  0  0  0  0  0  0  0  0
    4.6099  -11.2619   22.1905 O   0  0  0  0  0  0  0  0  0  0  0  0
   -2.3576  -16.2022   25.0807 N   0  0  0  0  0  0  0  0  0  0  0  0
   -2.0027  -17.7339   26.0424 C   0  0  0  0  0  0  0  0  0  0  0  0
   -0.8868  -18.1781   26.2591 O   0  0  0  0  0  0  0  0  0  0  0  0
   -3.1070  -18.6218   26.8584 C   0  0  0  0  0  0  0  0  0  0  0  0
   -3.2271  -20.1254   26.5898 C   0  0  0  0  0  0  0  0  0  0  0  0
   -3.7273  -20.6789   25.4947 N   0  0  0  0  0  0  0  0  0  0  0  0
   -3.8721  -22.0168   25.7420 C   0  0  0  0  0  0  0  0  0  0  0  0
   -3.4711  -22.3083   27.0163 C   0  0  0  0  0  0  0  0  0  0  0  0
   -3.0347  -21.1192   27.5407 N   0  0  0  0  0  0  0  0  0  0  0  0
   -2.4527  -21.0152   28.8578 C   0  0  0  0  0  0  0  0  0  0  0  0
   -0.3550  -15.6356   22.0665 H   0  0  0  0  0  0  0  0  0  0  0  0
   -1.7157  -14.7192   21.8333 H   0  0  0  0  0  0  0  0  0  0  0  0
   -0.2039  -14.0544   22.5641 H   0  0  0  0  0  0  0  0  0  0  0  0
   -1.6012  -14.1714   25.0745 H   0  0  0  0  0  0  0  0  0  0  0  0
    1.0047  -14.5683   23.9201 H   0  0  0  0  0  0  0  0  0  0  0  0
    0.9685  -13.7512   25.7825 H   0  0  0  0  0  0  0  0  0  0  0  0
    1.5294  -12.2053   23.6348 H   0  0  0  0  0  0  0  0  0  0  0  0
    3.1340  -13.7578   20.9477 H   0  0  0  0  0  0  0  0  0  0  0  0
    6.1631  -11.2094   20.5283 H   0  0  0  0  0  0  0  0  0  0  0  0
   -3.3502  -16.0974   24.9720 H   0  0  0  0  0  0  0  0  0  0  0  0
   -4.0080  -18.2072   27.3297 H   0  0  0  0  0  0  0  0  0  0  0  0
   -2.5454  -18.6039   27.8129 H   0  0  0  0  0  0  0  0  0  0  0  0
   -4.2561  -22.6940   24.9898 H   0  0  0  0  0  0  0  0  0  0  0  0
   -3.4191  -23.2387   27.5619 H   0  0  0  0  0  0  0  0  0  0  0  0
   -2.6700  -20.0478   29.3085 H   0  0  0  0  0  0  0  0  0  0  0  0
   -1.3711  -21.1355   28.7513 H   0  0  0  0  0  0  0  0  0  0  0  0
   -2.8502  -21.8080   29.4961 H   0  0  0  0  0  0  0  0  0  0  0  0
  1  2  1  0
  2  3  1  0
  3  4  1  0
  4  5  1  0
  5  6  2  0
  5  7  1  0
  7  8  2  0
  8  9  1  0
  9 10  2  0
 10 11  1  0
  2 12  1  0
 12 13  1  0
 13 14  2  0
 13 15  1  0
 15 16  1  0
 16 17  2  0
 17 18  1  0
 18 19  2  0
 19 20  1  0
 20 21  1  0
 11  7  1  0
 20 16  1  0
  1 22  1  0
  1 23  1  0
  1 24  1  0
  2 25  1  0
  3 26  1  0
  3 27  1  0
  4 28  1  0
  8 29  1  0
 10 30  1  0
 12 31  1  0
 15 32  1  0
 15 33  1  0
 18 34  1  0
 19 35  1  0
 21 36  1  0
 21 37  1  0
 21 38  1  0
M  END
>  <Energy>  (296) 
467.17466393635698

>  <compound_id>  (296) 
46407

>  <target_id>  (296) 
1

>  <reference_id>  (296) 
114

>  <inspiration_ids>  (296) 
[114, 49]

>  <energy_score>  (296) 
415.04982811654213

>  <distance_score>  (296) 
11.590658014454005

>  <path>  (296) 
/opt/xchem-fragalysis-2/maxwin/BulkDock/SCRATCH/511023/C46407-P114/C46407-P114.minimised.mol

>  <scratch_subdir>  (296) 
/opt/xchem-fragalysis-2/maxwin/BulkDock/SCRATCH/511023/C46407-P114

>  <fragmenstein_runtime>  (296) 
23.907598972320557

>  <fragmenstein_outcome>  (296) 
too moved

>  <fragmenstein_mode>  (296) 
expansion

>  <fragmenstein_error>  (296) 


$$$$
C46407-P49
     RDKit          3D

 38 39  0  0  0  0  0  0  0  0999 V2000
   -1.6601  -14.6900   26.4932 C   0  0  0  0  0  0  0  0  0  0  0  0
   -0.0668  -15.7636   26.3791 C   0  0  0  0  0  0  0  0  0  0  0  0
    1.7672  -14.8245   26.0837 C   0  0  0  0  0  0  0  0  0  0  0  0
    3.0476  -13.3565   26.1526 N   0  0  0  0  0  0  0  0  0  0  0  0
    3.7296  -12.3432   24.8690 C   0  0  0  0  0  0  0  0  0  0  0  0
    3.5374  -12.4909   23.6847 O   0  0  0  0  0  0  0  0  0  0  0  0
    4.8380  -10.9194   25.1295 C   0  0  0  0  0  0  0  0  0  0  0  0
    5.1906   -9.7453   25.8198 C   0  0  0  0  0  0  0  0  0  0  0  0
    6.1883   -8.9924   25.1980 N   0  0  0  0  0  0  0  0  0  0  0  0
    6.4823   -9.6888   24.1387 C   0  0  0  0  0  0  0  0  0  0  0  0
    5.7209  -10.7917   23.9734 O   0  0  0  0  0  0  0  0  0  0  0  0
   -1.2705  -16.9045   25.8856 N   0  0  0  0  0  0  0  0  0  0  0  0
   -1.6926  -18.3612   26.5188 C   0  0  0  0  0  0  0  0  0  0  0  0
   -1.1865  -19.0087   27.4408 O   0  0  0  0  0  0  0  0  0  0  0  0
   -2.9699  -18.9526   25.8769 C   0  0  0  0  0  0  0  0  0  0  0  0
   -3.0942  -20.3432   25.2817 C   0  0  0  0  0  0  0  0  0  0  0  0
   -2.6503  -20.6899   24.0812 N   0  0  0  0  0  0  0  0  0  0  0  0
   -3.3158  -21.8257   23.7218 C   0  0  0  0  0  0  0  0  0  0  0  0
   -4.1730  -22.1976   24.7171 C   0  0  0  0  0  0  0  0  0  0  0  0
   -3.9526  -21.3091   25.7249 N   0  0  0  0  0  0  0  0  0  0  0  0
   -4.5859  -21.3101   26.9984 C   0  0  0  0  0  0  0  0  0  0  0  0
   -2.1748  -13.9962   25.8121 H   0  0  0  0  0  0  0  0  0  0  0  0
   -2.5417  -15.3433   26.5968 H   0  0  0  0  0  0  0  0  0  0  0  0
   -1.4067  -13.8278   27.1126 H   0  0  0  0  0  0  0  0  0  0  0  0
    0.2591  -16.0732   27.3214 H   0  0  0  0  0  0  0  0  0  0  0  0
    1.6335  -14.6461   27.1309 H   0  0  0  0  0  0  0  0  0  0  0  0
    2.4706  -15.6102   25.8136 H   0  0  0  0  0  0  0  0  0  0  0  0
    3.4321  -13.0751   27.0294 H   0  0  0  0  0  0  0  0  0  0  0  0
    4.7656   -9.3269   26.6984 H   0  0  0  0  0  0  0  0  0  0  0  0
    7.2280   -9.4924   23.3817 H   0  0  0  0  0  0  0  0  0  0  0  0
   -1.9524  -16.6274   25.1893 H   0  0  0  0  0  0  0  0  0  0  0  0
   -3.7894  -18.7367   26.5604 H   0  0  0  0  0  0  0  0  0  0  0  0
   -3.0417  -18.4374   24.9529 H   0  0  0  0  0  0  0  0  0  0  0  0
   -3.1642  -22.2927   22.7574 H   0  0  0  0  0  0  0  0  0  0  0  0
   -4.8963  -22.9941   24.7601 H   0  0  0  0  0  0  0  0  0  0  0  0
   -4.6791  -20.2830   27.3333 H   0  0  0  0  0  0  0  0  0  0  0  0
   -5.5854  -21.7221   26.9191 H   0  0  0  0  0  0  0  0  0  0  0  0
   -3.9429  -21.8707   27.6778 H   0  0  0  0  0  0  0  0  0  0  0  0
  1  2  1  0
  2  3  1  0
  3  4  1  0
  4  5  1  0
  5  6  2  0
  5  7  1  0
  7  8  2  0
  8  9  1  0
  9 10  2  0
 10 11  1  0
  2 12  1  0
 12 13  1  0
 13 14  2  0
 13 15  1  0
 15 16  1  0
 16 17  2  0
 17 18  1  0
 18 19  2  0
 19 20  1  0
 20 21  1  0
 11  7  1  0
 20 16  1  0
  1 22  1  0
  1 23  1  0
  1 24  1  0
  2 25  1  0
  3 26  1  0
  3 27  1  0
  4 28  1  0
  8 29  1  0
 10 30  1  0
 12 31  1  0
 15 32  1  0
 15 33  1  0
 18 34  1  0
 19 35  1  0
 21 36  1  0
 21 37  1  0
 21 38  1  0
M  END
>  <Energy>  (297) 
491.87864236676035

>  <compound_id>  (297) 
46407

>  <target_id>  (297) 
1

>  <reference_id>  (297) 
49

>  <inspiration_ids>  (297) 
[114, 49]

>  <energy_score>  (297) 
439.75380654694516

>  <distance_score>  (297) 
11.613677688044168

>  <path>  (297) 
/opt/xchem-fragalysis-2/maxwin/BulkDock/SCRATCH/511023/C46407-P49/C46407-P49.minimised.mol

>  <scratch_subdir>  (297) 
/opt/xchem-fragalysis-2/maxwin/BulkDock/SCRATCH/511023/C46407-P49

>  <fragmenstein_runtime>  (297) 
14.81766676902771

>  <fragmenstein_outcome>  (297) 
too moved

>  <fragmenstein_mode>  (297) 
expansion

>  <fragmenstein_error>  (297) 


$$$$
C8991-P114
     RDKit          3D

 42 44  0  0  0  0  0  0  0  0999 V2000
   -1.1128   -9.4934   22.5223 C   0  0  0  0  0  0  0  0  0  0  0  0
   -0.0439  -11.0760   22.3007 C   0  0  0  0  0  0  0  0  0  0  0  0
    0.7210   -9.6281   21.1063 C   0  0  0  0  0  0  0  0  0  0  0  0
    1.3482   -8.9574   19.5768 N   0  0  0  0  0  0  0  0  0  0  0  0
    0.7375   -8.0555   18.5992 C   0  0  0  0  0  0  0  0  0  0  0  0
   -0.3708   -7.6049   18.5389 O   0  0  0  0  0  0  0  0  0  0  0  0
    1.7399   -7.5328   17.5462 C   0  0  0  0  0  0  0  0  0  0  0  0
    3.0120   -7.9968   17.2135 C   0  0  0  0  0  0  0  0  0  0  0  0
    3.8930   -6.8859   16.2354 S   0  0  0  0  0  0  0  0  0  0  0  0
    2.5363   -5.8518   16.2521 C   0  0  0  0  0  0  0  0  0  0  0  0
    1.5000   -6.2716   16.9441 N   0  0  0  0  0  0  0  0  0  0  0  0
   -0.2587  -13.1148   22.8251 N   0  0  0  0  0  0  0  0  0  0  0  0
   -1.0140  -13.9640   24.4172 C   0  0  0  0  0  0  0  0  0  0  0  0
   -1.3398  -13.3094   25.4118 O   0  0  0  0  0  0  0  0  0  0  0  0
   -1.6396  -15.7411   24.6240 C   0  0  0  0  0  0  0  0  0  0  0  0
   -2.2140  -17.2713   25.8904 C   0  0  0  0  0  0  0  0  0  0  0  0
   -2.4445  -16.9844   27.2247 N   0  0  0  0  0  0  0  0  0  0  0  0
   -2.6942  -18.1119   27.9559 C   0  0  0  0  0  0  0  0  0  0  0  0
   -2.4250  -19.1976   27.1904 C   0  0  0  0  0  0  0  0  0  0  0  0
   -1.9392  -18.6824   26.0083 N   0  0  0  0  0  0  0  0  0  0  0  0
   -1.4487  -11.3461   20.9286 C   0  0  0  0  0  0  0  0  0  0  0  0
   -2.8895  -10.8279   20.8450 C   0  0  0  0  0  0  0  0  0  0  0  0
   -1.9870  -10.3907   19.7908 C   0  0  0  0  0  0  0  0  0  0  0  0
   -1.5644   -9.0579   21.6357 H   0  0  0  0  0  0  0  0  0  0  0  0
   -0.4456   -8.6659   22.8394 H   0  0  0  0  0  0  0  0  0  0  0  0
   -2.0420   -9.3848   23.1042 H   0  0  0  0  0  0  0  0  0  0  0  0
    1.1895   -8.8847   21.7535 H   0  0  0  0  0  0  0  0  0  0  0  0
   -0.1496   -9.0669   20.8230 H   0  0  0  0  0  0  0  0  0  0  0  0
    2.2629   -9.1944   19.2720 H   0  0  0  0  0  0  0  0  0  0  0  0
    3.4872   -8.9286   17.4820 H   0  0  0  0  0  0  0  0  0  0  0  0
    2.5305   -4.9058   15.7263 H   0  0  0  0  0  0  0  0  0  0  0  0
    0.0116  -13.8309   22.1699 H   0  0  0  0  0  0  0  0  0  0  0  0
   -2.2871  -15.2004   25.3867 H   0  0  0  0  0  0  0  0  0  0  0  0
   -2.5963  -15.6201   24.0670 H   0  0  0  0  0  0  0  0  0  0  0  0
   -3.0180  -18.0540   28.9862 H   0  0  0  0  0  0  0  0  0  0  0  0
   -2.4461  -20.2596   27.3848 H   0  0  0  0  0  0  0  0  0  0  0  0
   -1.5556  -19.3288   25.3422 H   0  0  0  0  0  0  0  0  0  0  0  0
   -1.5135  -12.3718   20.6028 H   0  0  0  0  0  0  0  0  0  0  0  0
   -3.2566  -10.1316   21.5761 H   0  0  0  0  0  0  0  0  0  0  0  0
   -3.6813  -11.4544   20.4447 H   0  0  0  0  0  0  0  0  0  0  0  0
   -2.1251  -10.8296   18.8043 H   0  0  0  0  0  0  0  0  0  0  0  0
   -1.8342   -9.3238   19.7140 H   0  0  0  0  0  0  0  0  0  0  0  0
  1  2  1  0
  2  3  1  0
  3  4  1  0
  4  5  1  0
  5  6  2  0
  5  7  1  0
  7  8  2  0
  8  9  1  0
  9 10  1  0
 10 11  2  0
  2 12  1  0
 12 13  1  0
 13 14  2  0
 13 15  1  0
 15 16  1  0
 16 17  2  0
 17 18  1  0
 18 19  2  0
 19 20  1  0
  2 21  1  0
 21 22  1  0
 22 23  1  0
 11  7  1  0
 20 16  1  0
 23 21  1  0
  1 24  1  0
  1 25  1  0
  1 26  1  0
  3 27  1  0
  3 28  1  0
  4 29  1  0
  8 30  1  0
 10 31  1  0
 12 32  1  0
 15 33  1  0
 15 34  1  0
 18 35  1  0
 19 36  1  0
 20 37  1  0
 21 38  1  0
 22 39  1  0
 22 40  1  0
 23 41  1  0
 23 42  1  0
M  END
>  <Energy>  (298) 
885.79073533034261

>  <compound_id>  (298) 
8991

>  <target_id>  (298) 
1

>  <reference_id>  (298) 
114

>  <inspiration_ids>  (298) 
[114, 49]

>  <energy_score>  (298) 
731.2705677453937

>  <distance_score>  (298) 
11.896698791410342

>  <path>  (298) 
/opt/xchem-fragalysis-2/maxwin/BulkDock/SCRATCH/511023/C8991-P114/C8991-P114.minimised.mol

>  <scratch_subdir>  (298) 
/opt/xchem-fragalysis-2/maxwin/BulkDock/SCRATCH/511023/C8991-P114

>  <fragmenstein_runtime>  (298) 
31.339712142944336

>  <fragmenstein_outcome>  (298) 
too moved

>  <fragmenstein_mode>  (298) 
expansion

>  <fragmenstein_error>  (298) 


$$$$
C8991-P49
     RDKit          3D

 42 44  0  0  0  0  0  0  0  0999 V2000
   -3.4450  -14.1255   22.9360 C   0  0  0  0  0  0  0  0  0  0  0  0
   -1.9226  -14.1011   22.9817 C   0  0  0  0  0  0  0  0  0  0  0  0
   -0.4465  -12.7333   23.1907 C   0  0  0  0  0  0  0  0  0  0  0  0
    1.2028  -11.7927   23.9170 N   0  0  0  0  0  0  0  0  0  0  0  0
    3.1000  -12.0760   23.5460 C   0  0  0  0  0  0  0  0  0  0  0  0
    3.4243  -12.8680   22.7029 O   0  0  0  0  0  0  0  0  0  0  0  0
    4.6643  -11.1804   24.1946 C   0  0  0  0  0  0  0  0  0  0  0  0
    5.0274  -10.4057   25.3571 C   0  0  0  0  0  0  0  0  0  0  0  0
    6.3309   -9.2579   25.1259 S   0  0  0  0  0  0  0  0  0  0  0  0
    6.5705   -9.8757   23.5784 C   0  0  0  0  0  0  0  0  0  0  0  0
    5.6594  -10.7390   23.2067 N   0  0  0  0  0  0  0  0  0  0  0  0
   -2.2308  -15.5949   24.2684 N   0  0  0  0  0  0  0  0  0  0  0  0
   -2.3816  -15.6058   25.6390 C   0  0  0  0  0  0  0  0  0  0  0  0
   -2.4585  -14.7158   26.4089 O   0  0  0  0  0  0  0  0  0  0  0  0
   -2.3055  -17.1742   26.0394 C   0  0  0  0  0  0  0  0  0  0  0  0
   -2.8627  -18.6780   26.2027 C   0  0  0  0  0  0  0  0  0  0  0  0
   -2.6220  -19.4571   27.2579 N   0  0  0  0  0  0  0  0  0  0  0  0
   -3.2269  -20.6647   27.0285 C   0  0  0  0  0  0  0  0  0  0  0  0
   -3.8132  -20.6732   25.7950 C   0  0  0  0  0  0  0  0  0  0  0  0
   -3.6061  -19.4148   25.2992 N   0  0  0  0  0  0  0  0  0  0  0  0
   -1.4069  -14.0847   20.9897 C   0  0  0  0  0  0  0  0  0  0  0  0
   -0.7645  -15.4557   19.9841 C   0  0  0  0  0  0  0  0  0  0  0  0
   -2.1005  -15.0863   19.3971 C   0  0  0  0  0  0  0  0  0  0  0  0
   -3.7964  -14.7577   22.1838 H   0  0  0  0  0  0  0  0  0  0  0  0
   -3.8336  -14.4470   23.8542 H   0  0  0  0  0  0  0  0  0  0  0  0
   -4.1877  -13.5068   22.5126 H   0  0  0  0  0  0  0  0  0  0  0  0
   -0.2130  -12.6206   22.2077 H   0  0  0  0  0  0  0  0  0  0  0  0
   -1.3359  -12.2836   23.7055 H   0  0  0  0  0  0  0  0  0  0  0  0
    1.1081  -11.0435   24.5836 H   0  0  0  0  0  0  0  0  0  0  0  0
    4.5051  -10.3654   26.3028 H   0  0  0  0  0  0  0  0  0  0  0  0
    7.3722   -9.5616   22.9225 H   0  0  0  0  0  0  0  0  0  0  0  0
   -2.2828  -16.4799   23.9548 H   0  0  0  0  0  0  0  0  0  0  0  0
   -3.0588  -16.9167   26.7116 H   0  0  0  0  0  0  0  0  0  0  0  0
   -1.2855  -17.2197   26.3646 H   0  0  0  0  0  0  0  0  0  0  0  0
   -3.1777  -21.4641   27.7549 H   0  0  0  0  0  0  0  0  0  0  0  0
   -4.3614  -21.4296   25.2524 H   0  0  0  0  0  0  0  0  0  0  0  0
   -4.0062  -19.0333   24.4587 H   0  0  0  0  0  0  0  0  0  0  0  0
   -0.7606  -13.2664   20.8500 H   0  0  0  0  0  0  0  0  0  0  0  0
   -0.6713  -16.4216   20.4330 H   0  0  0  0  0  0  0  0  0  0  0  0
    0.0554  -15.3111   19.3060 H   0  0  0  0  0  0  0  0  0  0  0  0
   -2.8471  -15.8974   19.3844 H   0  0  0  0  0  0  0  0  0  0  0  0
   -2.2060  -14.6874   18.3960 H   0  0  0  0  0  0  0  0  0  0  0  0
  1  2  1  0
  2  3  1  0
  3  4  1  0
  4  5  1  0
  5  6  2  0
  5  7  1  0
  7  8  2  0
  8  9  1  0
  9 10  1  0
 10 11  2  0
  2 12  1  0
 12 13  1  0
 13 14  2  0
 13 15  1  0
 15 16  1  0
 16 17  2  0
 17 18  1  0
 18 19  2  0
 19 20  1  0
  2 21  1  0
 21 22  1  0
 22 23  1  0
 11  7  1  0
 20 16  1  0
 23 21  1  0
  1 24  1  0
  1 25  1  0
  1 26  1  0
  3 27  1  0
  3 28  1  0
  4 29  1  0
  8 30  1  0
 10 31  1  0
 12 32  1  0
 15 33  1  0
 15 34  1  0
 18 35  1  0
 19 36  1  0
 20 37  1  0
 21 38  1  0
 22 39  1  0
 22 40  1  0
 23 41  1  0
 23 42  1  0
M  END
>  <Energy>  (299) 
841.82876318385456

>  <compound_id>  (299) 
8991

>  <target_id>  (299) 
1

>  <reference_id>  (299) 
49

>  <inspiration_ids>  (299) 
[114, 49]

>  <energy_score>  (299) 
687.3085955989151

>  <distance_score>  (299) 
12.240835392642968

>  <path>  (299) 
/opt/xchem-fragalysis-2/maxwin/BulkDock/SCRATCH/511023/C8991-P49/C8991-P49.minimised.mol

>  <scratch_subdir>  (299) 
/opt/xchem-fragalysis-2/maxwin/BulkDock/SCRATCH/511023/C8991-P49

>  <fragmenstein_runtime>  (299) 
18.5894615650177

>  <fragmenstein_outcome>  (299) 
too moved

>  <fragmenstein_mode>  (299) 
expansion

>  <fragmenstein_error>  (299) 


$$$$
C11946-P114
     RDKit          3D

 37 38  0  0  0  0  0  0  0  0999 V2000
    4.6278  -18.4901   19.4580 C   0  0  0  0  0  0  0  0  0  0  0  0
    3.2345  -17.9882   19.4779 C   0  0  0  0  0  0  0  0  0  0  0  0
    2.2363  -18.6032   20.1921 N   0  0  0  0  0  0  0  0  0  0  0  0
    1.0792  -17.9108   19.9928 C   0  0  0  0  0  0  0  0  0  0  0  0
    1.2824  -16.8907   19.1897 N   0  0  0  0  0  0  0  0  0  0  0  0
    2.6536  -16.8818   18.8823 C   0  0  0  0  0  0  0  0  0  0  0  0
    3.2339  -15.7793   17.9549 C   0  0  0  0  0  0  0  0  0  0  0  0
    4.6960  -15.0984   18.2524 C   0  0  0  0  0  0  0  0  0  0  0  0
    5.6899  -15.7914   18.1401 O   0  0  0  0  0  0  0  0  0  0  0  0
    4.5399  -13.5615   18.7742 N   0  0  0  0  0  0  0  0  0  0  0  0
    5.6391  -12.5416   19.3983 C   0  0  0  0  0  0  0  0  0  0  0  0
    6.6326  -11.1379   18.4480 C   0  0  0  0  0  0  0  0  0  0  0  0
    7.2143  -10.9285   19.6548 C   0  0  0  0  0  0  0  0  0  0  0  0
    8.3496  -10.6105   17.4842 C   0  0  0  0  0  0  0  0  0  0  0  0
    9.5082  -10.2630   18.1354 C   0  0  0  0  0  0  0  0  0  0  0  0
   10.8550  -10.3676   17.6914 C   0  0  0  0  0  0  0  0  0  0  0  0
   11.2015  -10.6615   16.4452 N   0  0  0  0  0  0  0  0  0  0  0  0
   10.1584  -10.7633   15.6361 C   0  0  0  0  0  0  0  0  0  0  0  0
    8.8239  -10.6777   16.0700 C   0  0  0  0  0  0  0  0  0  0  0  0
    5.2686  -17.8661   20.0884 H   0  0  0  0  0  0  0  0  0  0  0  0
    4.6868  -19.5186   19.8291 H   0  0  0  0  0  0  0  0  0  0  0  0
    5.0259  -18.4822   18.4386 H   0  0  0  0  0  0  0  0  0  0  0  0
    2.3370  -19.4302   20.7623 H   0  0  0  0  0  0  0  0  0  0  0  0
    0.1373  -18.1947   20.4407 H   0  0  0  0  0  0  0  0  0  0  0  0
    2.4572  -15.0176   17.9870 H   0  0  0  0  0  0  0  0  0  0  0  0
    3.2778  -16.1804   16.9357 H   0  0  0  0  0  0  0  0  0  0  0  0
    3.6194  -13.2724   18.6675 H   0  0  0  0  0  0  0  0  0  0  0  0
    5.0702  -12.1109   20.2181 H   0  0  0  0  0  0  0  0  0  0  0  0
    6.2618  -13.2137   19.9983 H   0  0  0  0  0  0  0  0  0  0  0  0
    5.8247  -10.4363   18.4433 H   0  0  0  0  0  0  0  0  0  0  0  0
    7.9698  -11.6273   19.7892 H   0  0  0  0  0  0  0  0  0  0  0  0
    7.7305  -10.0538   19.5350 H   0  0  0  0  0  0  0  0  0  0  0  0
    6.4579  -11.0093   20.4143 H   0  0  0  0  0  0  0  0  0  0  0  0
    9.3164   -9.4449   18.8004 H   0  0  0  0  0  0  0  0  0  0  0  0
   11.6756  -10.0863   18.3446 H   0  0  0  0  0  0  0  0  0  0  0  0
   10.3823  -10.9495   14.5910 H   0  0  0  0  0  0  0  0  0  0  0  0
    8.1790  -10.7016   15.1898 H   0  0  0  0  0  0  0  0  0  0  0  0
  1  2  1  0
  2  3  1  0
  3  4  1  0
  4  5  2  0
  5  6  1  0
  6  7  1  0
  7  8  1  0
  8  9  2  0
  8 10  1  0
 10 11  1  0
 11 12  1  0
 12 13  1  0
 12 14  1  0
 14 15  2  0
 15 16  1  0
 16 17  2  0
 17 18  1  0
 18 19  2  0
  6  2  2  0
 19 14  1  0
  1 20  1  0
  1 21  1  0
  1 22  1  0
  3 23  1  0
  4 24  1  0
  7 25  1  0
  7 26  1  0
 10 27  1  0
 11 28  1  0
 11 29  1  0
 12 30  1  0
 13 31  1  0
 13 32  1  0
 13 33  1  0
 15 34  1  0
 16 35  1  0
 18 36  1  0
 19 37  1  0
M  END
>  <Energy>  (300) 
340.55433992950191

>  <compound_id>  (300) 
11946

>  <target_id>  (300) 
1

>  <reference_id>  (300) 
114

>  <inspiration_ids>  (300) 
[114, 49]

>  <energy_score>  (300) 
281.607509968661

>  <distance_score>  (300) 
15.782151878253657

>  <path>  (300) 
/opt/xchem-fragalysis-2/maxwin/BulkDock/SCRATCH/511023/C11946-P114/C11946-P114.minimised.mol

>  <scratch_subdir>  (300) 
/opt/xchem-fragalysis-2/maxwin/BulkDock/SCRATCH/511023/C11946-P114

>  <fragmenstein_runtime>  (300) 
28.496023178100586

>  <fragmenstein_outcome>  (300) 
too moved

>  <fragmenstein_mode>  (300) 
expansion

>  <fragmenstein_error>  (300) 


$$$$
C11946-P49
     RDKit          3D

 37 38  0  0  0  0  0  0  0  0999 V2000
   -2.3748  -16.9993   25.1824 C   0  0  0  0  0  0  0  0  0  0  0  0
   -3.2179  -16.9845   23.9675 C   0  0  0  0  0  0  0  0  0  0  0  0
   -3.9445  -18.0876   23.5870 N   0  0  0  0  0  0  0  0  0  0  0  0
   -4.7368  -17.7302   22.5420 C   0  0  0  0  0  0  0  0  0  0  0  0
   -4.4974  -16.4947   22.1772 N   0  0  0  0  0  0  0  0  0  0  0  0
   -3.4959  -16.0175   23.0077 C   0  0  0  0  0  0  0  0  0  0  0  0
   -3.1099  -14.5523   22.9032 C   0  0  0  0  0  0  0  0  0  0  0  0
   -1.8209  -14.0736   21.9558 C   0  0  0  0  0  0  0  0  0  0  0  0
   -1.5926  -14.6339   20.8914 O   0  0  0  0  0  0  0  0  0  0  0  0
   -0.8939  -12.8021   22.8214 N   0  0  0  0  0  0  0  0  0  0  0  0
    0.8587  -11.8733   22.4159 C   0  0  0  0  0  0  0  0  0  0  0  0
    2.4584  -11.0916   21.3279 C   0  0  0  0  0  0  0  0  0  0  0  0
    2.9269  -12.4169   22.0935 C   0  0  0  0  0  0  0  0  0  0  0  0
    3.9125   -9.7362   20.6494 C   0  0  0  0  0  0  0  0  0  0  0  0
    5.4483   -9.8566   21.6359 C   0  0  0  0  0  0  0  0  0  0  0  0
    6.6242   -9.4350   22.5807 C   0  0  0  0  0  0  0  0  0  0  0  0
    6.7310   -8.1893   22.8962 N   0  0  0  0  0  0  0  0  0  0  0  0
    5.7026   -7.7199   22.2584 C   0  0  0  0  0  0  0  0  0  0  0  0
    4.5178   -8.6673   21.2493 C   0  0  0  0  0  0  0  0  0  0  0  0
   -2.5926  -17.8710   25.8089 H   0  0  0  0  0  0  0  0  0  0  0  0
   -2.5594  -16.1089   25.7905 H   0  0  0  0  0  0  0  0  0  0  0  0
   -1.3146  -17.0373   24.9187 H   0  0  0  0  0  0  0  0  0  0  0  0
   -3.9568  -18.9877   24.0446 H   0  0  0  0  0  0  0  0  0  0  0  0
   -5.4589  -18.3967   22.0875 H   0  0  0  0  0  0  0  0  0  0  0  0
   -4.0116  -14.1235   22.4391 H   0  0  0  0  0  0  0  0  0  0  0  0
   -3.0489  -14.1090   23.8994 H   0  0  0  0  0  0  0  0  0  0  0  0
   -1.3973  -12.4942   23.6347 H   0  0  0  0  0  0  0  0  0  0  0  0
    1.0746  -11.5091   23.4523 H   0  0  0  0  0  0  0  0  0  0  0  0
    0.8818  -12.9677   22.0222 H   0  0  0  0  0  0  0  0  0  0  0  0
    1.6999  -10.3239   21.3593 H   0  0  0  0  0  0  0  0  0  0  0  0
    3.0847  -12.1830   23.1488 H   0  0  0  0  0  0  0  0  0  0  0  0
    3.7972  -13.1219   22.1324 H   0  0  0  0  0  0  0  0  0  0  0  0
    2.4803  -13.2199   21.5665 H   0  0  0  0  0  0  0  0  0  0  0  0
    6.2455  -10.1453   20.8802 H   0  0  0  0  0  0  0  0  0  0  0  0
    7.4426  -10.1188   22.7856 H   0  0  0  0  0  0  0  0  0  0  0  0
    5.4425   -6.6723   22.4238 H   0  0  0  0  0  0  0  0  0  0  0  0
    3.6822   -7.9949   21.0221 H   0  0  0  0  0  0  0  0  0  0  0  0
  1  2  1  0
  2  3  1  0
  3  4  1  0
  4  5  2  0
  5  6  1  0
  6  7  1  0
  7  8  1  0
  8  9  2  0
  8 10  1  0
 10 11  1  0
 11 12  1  0
 12 13  1  0
 12 14  1  0
 14 15  2  0
 15 16  1  0
 16 17  2  0
 17 18  1  0
 18 19  2  0
  6  2  2  0
 19 14  1  0
  1 20  1  0
  1 21  1  0
  1 22  1  0
  3 23  1  0
  4 24  1  0
  7 25  1  0
  7 26  1  0
 10 27  1  0
 11 28  1  0
 11 29  1  0
 12 30  1  0
 13 31  1  0
 13 32  1  0
 13 33  1  0
 15 34  1  0
 16 35  1  0
 18 36  1  0
 19 37  1  0
M  END
>  <Energy>  (301) 
869.54901140074537

>  <compound_id>  (301) 
11946

>  <target_id>  (301) 
1

>  <reference_id>  (301) 
49

>  <inspiration_ids>  (301) 
[114, 49]

>  <energy_score>  (301) 
810.6021814399093

>  <distance_score>  (301) 
12.859186336563436

>  <path>  (301) 
/opt/xchem-fragalysis-2/maxwin/BulkDock/SCRATCH/511023/C11946-P49/C11946-P49.minimised.mol

>  <scratch_subdir>  (301) 
/opt/xchem-fragalysis-2/maxwin/BulkDock/SCRATCH/511023/C11946-P49

>  <fragmenstein_runtime>  (301) 
16.766869068145752

>  <fragmenstein_outcome>  (301) 
too moved

>  <fragmenstein_mode>  (301) 
expansion

>  <fragmenstein_error>  (301) 


$$$$
C11947-P114
     RDKit          3D

 37 38  0  0  0  0  0  0  0  0999 V2000
    1.1826  -20.7866   18.1744 C   0  0  0  0  0  0  0  0  0  0  0  0
    1.4552  -19.2977   18.0295 C   0  0  0  0  0  0  0  0  0  0  0  0
    1.7022  -18.5422   19.3595 C   0  0  0  0  0  0  0  0  0  0  0  0
    0.3946  -18.6284   20.2481 N   0  0  0  0  0  0  0  0  0  0  0  0
   -0.2645  -19.8904   21.0278 C   0  0  0  0  0  0  0  0  0  0  0  0
    0.1338  -21.0002   21.1638 O   0  0  0  0  0  0  0  0  0  0  0  0
   -1.6866  -19.5007   21.7473 C   0  0  0  0  0  0  0  0  0  0  0  0
   -2.7525  -20.6590   22.2185 C   0  0  0  0  0  0  0  0  0  0  0  0
   -2.6043  -22.0206   22.4358 C   0  0  0  0  0  0  0  0  0  0  0  0
   -3.8641  -22.5491   22.4246 N   0  0  0  0  0  0  0  0  0  0  0  0
   -4.7460  -21.5142   22.2718 C   0  0  0  0  0  0  0  0  0  0  0  0
   -6.1722  -21.7352   21.9305 C   0  0  0  0  0  0  0  0  0  0  0  0
   -4.1176  -20.3618   22.3742 N   0  0  0  0  0  0  0  0  0  0  0  0
    2.3646  -17.1361   18.9377 C   0  0  0  0  0  0  0  0  0  0  0  0
    3.7137  -16.9469   18.4075 C   0  0  0  0  0  0  0  0  0  0  0  0
    4.2128  -15.6975   17.9900 C   0  0  0  0  0  0  0  0  0  0  0  0
    3.4870  -14.5810   18.1442 N   0  0  0  0  0  0  0  0  0  0  0  0
    2.1782  -14.8182   18.4335 C   0  0  0  0  0  0  0  0  0  0  0  0
    1.6122  -15.9852   18.8667 C   0  0  0  0  0  0  0  0  0  0  0  0
    0.1760  -20.9727   18.5560 H   0  0  0  0  0  0  0  0  0  0  0  0
    1.9127  -21.2640   18.8347 H   0  0  0  0  0  0  0  0  0  0  0  0
    1.2451  -21.2733   17.1952 H   0  0  0  0  0  0  0  0  0  0  0  0
    2.3344  -19.1989   17.3801 H   0  0  0  0  0  0  0  0  0  0  0  0
    0.6194  -18.8341   17.4897 H   0  0  0  0  0  0  0  0  0  0  0  0
    2.4583  -19.0754   19.9485 H   0  0  0  0  0  0  0  0  0  0  0  0
   -0.2488  -17.8486   20.2577 H   0  0  0  0  0  0  0  0  0  0  0  0
   -1.4397  -18.9283   22.6486 H   0  0  0  0  0  0  0  0  0  0  0  0
   -2.2340  -18.8548   21.0511 H   0  0  0  0  0  0  0  0  0  0  0  0
   -1.7243  -22.6496   22.4336 H   0  0  0  0  0  0  0  0  0  0  0  0
   -4.1001  -23.5319   22.4210 H   0  0  0  0  0  0  0  0  0  0  0  0
   -6.7771  -20.8675   22.2070 H   0  0  0  0  0  0  0  0  0  0  0  0
   -6.5733  -22.6223   22.4292 H   0  0  0  0  0  0  0  0  0  0  0  0
   -6.2752  -21.8817   20.8504 H   0  0  0  0  0  0  0  0  0  0  0  0
    4.3632  -17.8160   18.3280 H   0  0  0  0  0  0  0  0  0  0  0  0
    5.1925  -15.6370   17.5677 H   0  0  0  0  0  0  0  0  0  0  0  0
    1.4417  -14.0551   18.2518 H   0  0  0  0  0  0  0  0  0  0  0  0
    0.5520  -16.0107   19.0935 H   0  0  0  0  0  0  0  0  0  0  0  0
  1  2  1  0
  2  3  1  0
  3  4  1  0
  4  5  1  0
  5  6  2  0
  5  7  1  0
  7  8  1  0
  8  9  2  0
  9 10  1  0
 10 11  1  0
 11 12  1  0
 11 13  2  0
  3 14  1  0
 14 15  2  0
 15 16  1  0
 16 17  2  0
 17 18  1  0
 18 19  2  0
 13  8  1  0
 19 14  1  0
  1 20  1  0
  1 21  1  0
  1 22  1  0
  2 23  1  0
  2 24  1  0
  3 25  1  0
  4 26  1  0
  7 27  1  0
  7 28  1  0
  9 29  1  0
 10 30  1  0
 12 31  1  0
 12 32  1  0
 12 33  1  0
 15 34  1  0
 16 35  1  0
 18 36  1  0
 19 37  1  0
M  END
>  <Energy>  (302) 
81.229689624600809

>  <compound_id>  (302) 
11947

>  <target_id>  (302) 
1

>  <reference_id>  (302) 
114

>  <inspiration_ids>  (302) 
[114, 49]

>  <energy_score>  (302) 
37.967231492000906

>  <distance_score>  (302) 
14.906439793476276

>  <path>  (302) 
/opt/xchem-fragalysis-2/maxwin/BulkDock/SCRATCH/511023/C11947-P114/C11947-P114.minimised.mol

>  <scratch_subdir>  (302) 
/opt/xchem-fragalysis-2/maxwin/BulkDock/SCRATCH/511023/C11947-P114

>  <fragmenstein_runtime>  (302) 
21.45199966430664

>  <fragmenstein_outcome>  (302) 
too moved

>  <fragmenstein_mode>  (302) 
expansion

>  <fragmenstein_error>  (302) 


$$$$
C11947-P49
     RDKit          3D

 37 38  0  0  0  0  0  0  0  0999 V2000
    3.9416  -17.8445   22.1383 C   0  0  0  0  0  0  0  0  0  0  0  0
    2.5231  -17.3016   22.2521 C   0  0  0  0  0  0  0  0  0  0  0  0
    2.2854  -16.4845   23.5395 C   0  0  0  0  0  0  0  0  0  0  0  0
    0.8362  -16.6993   23.9668 N   0  0  0  0  0  0  0  0  0  0  0  0
    0.0410  -18.0534   24.3023 C   0  0  0  0  0  0  0  0  0  0  0  0
    0.4260  -19.1690   24.3667 O   0  0  0  0  0  0  0  0  0  0  0  0
   -1.5068  -17.7734   24.6264 C   0  0  0  0  0  0  0  0  0  0  0  0
   -2.4785  -19.0385   24.6510 C   0  0  0  0  0  0  0  0  0  0  0  0
   -2.7718  -19.8813   23.5895 C   0  0  0  0  0  0  0  0  0  0  0  0
   -3.5497  -20.8665   24.0795 N   0  0  0  0  0  0  0  0  0  0  0  0
   -3.7503  -20.5899   25.3975 C   0  0  0  0  0  0  0  0  0  0  0  0
   -4.4323  -21.5702   26.2371 C   0  0  0  0  0  0  0  0  0  0  0  0
   -3.2233  -19.4399   25.7592 N   0  0  0  0  0  0  0  0  0  0  0  0
    2.9415  -15.0516   23.4414 C   0  0  0  0  0  0  0  0  0  0  0  0
    2.4301  -13.9792   22.7177 C   0  0  0  0  0  0  0  0  0  0  0  0
    2.9742  -12.7284   22.9156 C   0  0  0  0  0  0  0  0  0  0  0  0
    4.0838  -12.4353   23.6756 N   0  0  0  0  0  0  0  0  0  0  0  0
    4.6913  -13.4747   24.2127 C   0  0  0  0  0  0  0  0  0  0  0  0
    4.2015  -14.7629   24.0497 C   0  0  0  0  0  0  0  0  0  0  0  0
    4.0705  -18.3632   21.1830 H   0  0  0  0  0  0  0  0  0  0  0  0
    4.6943  -17.0576   22.2004 H   0  0  0  0  0  0  0  0  0  0  0  0
    4.1430  -18.5635   22.9394 H   0  0  0  0  0  0  0  0  0  0  0  0
    2.2656  -16.7068   21.3733 H   0  0  0  0  0  0  0  0  0  0  0  0
    1.8537  -18.1699   22.2208 H   0  0  0  0  0  0  0  0  0  0  0  0
    2.8215  -16.9983   24.3492 H   0  0  0  0  0  0  0  0  0  0  0  0
    0.1846  -15.9260   23.9148 H   0  0  0  0  0  0  0  0  0  0  0  0
   -1.8921  -17.0788   23.8719 H   0  0  0  0  0  0  0  0  0  0  0  0
   -1.5532  -17.2959   25.6111 H   0  0  0  0  0  0  0  0  0  0  0  0
   -2.4209  -19.8817   22.5674 H   0  0  0  0  0  0  0  0  0  0  0  0
   -3.8719  -21.6916   23.5911 H   0  0  0  0  0  0  0  0  0  0  0  0
   -3.6729  -22.2174   26.6721 H   0  0  0  0  0  0  0  0  0  0  0  0
   -5.1141  -22.1684   25.6308 H   0  0  0  0  0  0  0  0  0  0  0  0
   -5.0077  -21.0975   27.0288 H   0  0  0  0  0  0  0  0  0  0  0  0
    1.5308  -14.0908   22.1214 H   0  0  0  0  0  0  0  0  0  0  0  0
    2.4565  -11.9043   22.4300 H   0  0  0  0  0  0  0  0  0  0  0  0
    5.5775  -13.2894   24.8121 H   0  0  0  0  0  0  0  0  0  0  0  0
    4.7351  -15.5688   24.5534 H   0  0  0  0  0  0  0  0  0  0  0  0
  1  2  1  0
  2  3  1  0
  3  4  1  0
  4  5  1  0
  5  6  2  0
  5  7  1  0
  7  8  1  0
  8  9  2  0
  9 10  1  0
 10 11  1  0
 11 12  1  0
 11 13  2  0
  3 14  1  0
 14 15  2  0
 15 16  1  0
 16 17  2  0
 17 18  1  0
 18 19  2  0
 13  8  1  0
 19 14  1  0
  1 20  1  0
  1 21  1  0
  1 22  1  0
  2 23  1  0
  2 24  1  0
  3 25  1  0
  4 26  1  0
  7 27  1  0
  7 28  1  0
  9 29  1  0
 10 30  1  0
 12 31  1  0
 12 32  1  0
 12 33  1  0
 15 34  1  0
 16 35  1  0
 18 36  1  0
 19 37  1  0
M  END
>  <Energy>  (303) 
62.252810891505753

>  <compound_id>  (303) 
11947

>  <target_id>  (303) 
1

>  <reference_id>  (303) 
49

>  <inspiration_ids>  (303) 
[114, 49]

>  <energy_score>  (303) 
18.99035275891137

>  <distance_score>  (303) 
14.420387730122219

>  <path>  (303) 
/opt/xchem-fragalysis-2/maxwin/BulkDock/SCRATCH/511023/C11947-P49/C11947-P49.minimised.mol

>  <scratch_subdir>  (303) 
/opt/xchem-fragalysis-2/maxwin/BulkDock/SCRATCH/511023/C11947-P49

>  <fragmenstein_runtime>  (303) 
16.507627964019775

>  <fragmenstein_outcome>  (303) 
too moved

>  <fragmenstein_mode>  (303) 
expansion

>  <fragmenstein_error>  (303) 


$$$$
C11948-P114
     RDKit          3D

 38 39  0  0  0  0  0  0  0  0999 V2000
   -5.4228  -12.0974   21.5388 C   0  0  0  0  0  0  0  0  0  0  0  0
   -5.2677  -12.6364   22.9567 C   0  0  0  0  0  0  0  0  0  0  0  0
   -3.8260  -13.0773   23.3194 C   0  0  0  0  0  0  0  0  0  0  0  0
   -3.9017  -13.8527   24.6222 N   0  0  0  0  0  0  0  0  0  0  0  0
   -4.3167  -15.2864   24.4377 C   0  0  0  0  0  0  0  0  0  0  0  0
   -4.7220  -16.0013   25.7544 C   0  0  0  0  0  0  0  0  0  0  0  0
   -4.4220  -17.4732   25.7492 C   0  0  0  0  0  0  0  0  0  0  0  0
   -4.4867  -18.4325   24.7574 C   0  0  0  0  0  0  0  0  0  0  0  0
   -4.1053  -19.6665   25.2220 N   0  0  0  0  0  0  0  0  0  0  0  0
   -3.7946  -19.4764   26.4808 C   0  0  0  0  0  0  0  0  0  0  0  0
   -3.9505  -18.1679   26.8413 N   0  0  0  0  0  0  0  0  0  0  0  0
   -3.5671  -17.6000   28.1115 C   0  0  0  0  0  0  0  0  0  0  0  0
   -2.8839  -11.8242   23.3035 C   0  0  0  0  0  0  0  0  0  0  0  0
   -2.2100  -11.4260   22.1216 C   0  0  0  0  0  0  0  0  0  0  0  0
   -1.4458  -10.2470   22.0866 C   0  0  0  0  0  0  0  0  0  0  0  0
   -1.2821   -9.4287   23.1447 N   0  0  0  0  0  0  0  0  0  0  0  0
   -1.9472   -9.7909   24.2585 C   0  0  0  0  0  0  0  0  0  0  0  0
   -2.7315  -10.9490   24.3842 C   0  0  0  0  0  0  0  0  0  0  0  0
   -4.9300  -11.1292   21.4160 H   0  0  0  0  0  0  0  0  0  0  0  0
   -6.4838  -11.9509   21.3104 H   0  0  0  0  0  0  0  0  0  0  0  0
   -5.0139  -12.7979   20.8040 H   0  0  0  0  0  0  0  0  0  0  0  0
   -5.6215  -11.8760   23.6652 H   0  0  0  0  0  0  0  0  0  0  0  0
   -5.9580  -13.4826   23.0472 H   0  0  0  0  0  0  0  0  0  0  0  0
   -3.4365  -13.7629   22.5551 H   0  0  0  0  0  0  0  0  0  0  0  0
   -2.9479  -13.8783   24.9912 H   0  0  0  0  0  0  0  0  0  0  0  0
   -5.1591  -15.3606   23.7417 H   0  0  0  0  0  0  0  0  0  0  0  0
   -3.4708  -15.8039   23.9677 H   0  0  0  0  0  0  0  0  0  0  0  0
   -5.7901  -15.8420   25.9431 H   0  0  0  0  0  0  0  0  0  0  0  0
   -4.1865  -15.5227   26.5823 H   0  0  0  0  0  0  0  0  0  0  0  0
   -4.7920  -18.3021   23.7268 H   0  0  0  0  0  0  0  0  0  0  0  0
   -3.4279  -20.2380   27.1550 H   0  0  0  0  0  0  0  0  0  0  0  0
   -3.1504  -18.3789   28.7540 H   0  0  0  0  0  0  0  0  0  0  0  0
   -2.8008  -16.8405   27.9351 H   0  0  0  0  0  0  0  0  0  0  0  0
   -4.4491  -17.1554   28.5780 H   0  0  0  0  0  0  0  0  0  0  0  0
   -2.3003  -12.0181   21.2148 H   0  0  0  0  0  0  0  0  0  0  0  0
   -0.9439   -9.9287   21.1794 H   0  0  0  0  0  0  0  0  0  0  0  0
   -1.8540   -9.1035   25.0952 H   0  0  0  0  0  0  0  0  0  0  0  0
   -3.2486  -11.1464   25.3196 H   0  0  0  0  0  0  0  0  0  0  0  0
  1  2  1  0
  2  3  1  0
  3  4  1  0
  4  5  1  0
  5  6  1  0
  6  7  1  0
  7  8  2  0
  8  9  1  0
  9 10  2  0
 10 11  1  0
 11 12  1  0
  3 13  1  0
 13 14  2  0
 14 15  1  0
 15 16  2  0
 16 17  1  0
 17 18  2  0
 11  7  1  0
 18 13  1  0
  1 19  1  0
  1 20  1  0
  1 21  1  0
  2 22  1  0
  2 23  1  0
  3 24  1  0
  4 25  1  0
  5 26  1  0
  5 27  1  0
  6 28  1  0
  6 29  1  0
  8 30  1  0
 10 31  1  0
 12 32  1  0
 12 33  1  0
 12 34  1  0
 14 35  1  0
 15 36  1  0
 17 37  1  0
 18 38  1  0
M  END
>  <Energy>  (304) 
37.581440618377705

>  <compound_id>  (304) 
11948

>  <target_id>  (304) 
1

>  <reference_id>  (304) 
114

>  <inspiration_ids>  (304) 
[114, 49]

>  <energy_score>  (304) 
-18.85196004309455

>  <distance_score>  (304) 
14.29021271371515

>  <path>  (304) 
/opt/xchem-fragalysis-2/maxwin/BulkDock/SCRATCH/511023/C11948-P114/C11948-P114.minimised.mol

>  <scratch_subdir>  (304) 
/opt/xchem-fragalysis-2/maxwin/BulkDock/SCRATCH/511023/C11948-P114

>  <fragmenstein_runtime>  (304) 
23.12185788154602

>  <fragmenstein_outcome>  (304) 
too moved

>  <fragmenstein_mode>  (304) 
expansion

>  <fragmenstein_error>  (304) 


$$$$
C11948-P49
     RDKit          3D

 38 39  0  0  0  0  0  0  0  0999 V2000
    5.2221  -10.5188   18.0648 C   0  0  0  0  0  0  0  0  0  0  0  0
    4.4104   -9.9393   19.1487 C   0  0  0  0  0  0  0  0  0  0  0  0
    3.9660   -8.5462   20.2108 C   0  0  0  0  0  0  0  0  0  0  0  0
    2.3368   -9.4310   20.5221 N   0  0  0  0  0  0  0  0  0  0  0  0
    1.2443  -10.4289   21.4422 C   0  0  0  0  0  0  0  0  0  0  0  0
   -0.6409  -10.1728   20.8707 C   0  0  0  0  0  0  0  0  0  0  0  0
   -2.2865  -10.5343   21.3114 C   0  0  0  0  0  0  0  0  0  0  0  0
   -2.9448  -11.7810   21.3390 C   0  0  0  0  0  0  0  0  0  0  0  0
   -4.1825  -11.7084   21.9197 N   0  0  0  0  0  0  0  0  0  0  0  0
   -4.3271  -10.4370   22.2070 C   0  0  0  0  0  0  0  0  0  0  0  0
   -3.2335   -9.6882   21.8316 N   0  0  0  0  0  0  0  0  0  0  0  0
   -3.1201   -8.2584   21.9589 C   0  0  0  0  0  0  0  0  0  0  0  0
    4.0124   -6.5864   19.0930 C   0  0  0  0  0  0  0  0  0  0  0  0
    5.4206   -5.8433   18.3617 C   0  0  0  0  0  0  0  0  0  0  0  0
    5.7090   -5.3303   16.5468 C   0  0  0  0  0  0  0  0  0  0  0  0
    5.1415   -5.3937   15.3291 N   0  0  0  0  0  0  0  0  0  0  0  0
    4.1521   -6.1093   15.6156 C   0  0  0  0  0  0  0  0  0  0  0  0
    4.1883   -6.8146   17.1124 C   0  0  0  0  0  0  0  0  0  0  0  0
    5.9275  -11.1729   18.5676 H   0  0  0  0  0  0  0  0  0  0  0  0
    4.6112  -11.1695   17.4474 H   0  0  0  0  0  0  0  0  0  0  0  0
    5.7722   -9.7974   17.4767 H   0  0  0  0  0  0  0  0  0  0  0  0
    3.7093  -10.7561   19.3419 H   0  0  0  0  0  0  0  0  0  0  0  0
    5.3426   -9.7642   19.6539 H   0  0  0  0  0  0  0  0  0  0  0  0
    4.5939   -8.7402   21.1237 H   0  0  0  0  0  0  0  0  0  0  0  0
    1.7143   -8.6084   20.4275 H   0  0  0  0  0  0  0  0  0  0  0  0
    1.2493  -10.2031   22.4891 H   0  0  0  0  0  0  0  0  0  0  0  0
    1.8531  -11.3313   21.5083 H   0  0  0  0  0  0  0  0  0  0  0  0
   -0.7462  -11.2383   20.9898 H   0  0  0  0  0  0  0  0  0  0  0  0
   -0.7288   -9.6448   19.9066 H   0  0  0  0  0  0  0  0  0  0  0  0
   -2.5449  -12.7350   21.0218 H   0  0  0  0  0  0  0  0  0  0  0  0
   -5.1994   -9.9942   22.6699 H   0  0  0  0  0  0  0  0  0  0  0  0
   -2.6153   -8.0391   22.9028 H   0  0  0  0  0  0  0  0  0  0  0  0
   -4.1188   -7.8144   21.9513 H   0  0  0  0  0  0  0  0  0  0  0  0
   -2.5415   -7.8690   21.1174 H   0  0  0  0  0  0  0  0  0  0  0  0
    5.6276   -5.0464   19.1455 H   0  0  0  0  0  0  0  0  0  0  0  0
    5.6709   -4.2022   16.7147 H   0  0  0  0  0  0  0  0  0  0  0  0
    3.3051   -6.1719   14.9568 H   0  0  0  0  0  0  0  0  0  0  0  0
    3.8141   -7.8432   16.5816 H   0  0  0  0  0  0  0  0  0  0  0  0
  1  2  1  0
  2  3  1  0
  3  4  1  0
  4  5  1  0
  5  6  1  0
  6  7  1  0
  7  8  2  0
  8  9  1  0
  9 10  2  0
 10 11  1  0
 11 12  1  0
  3 13  1  0
 13 14  2  0
 14 15  1  0
 15 16  2  0
 16 17  1  0
 17 18  2  0
 11  7  1  0
 18 13  1  0
  1 19  1  0
  1 20  1  0
  1 21  1  0
  2 22  1  0
  2 23  1  0
  3 24  1  0
  4 25  1  0
  5 26  1  0
  5 27  1  0
  6 28  1  0
  6 29  1  0
  8 30  1  0
 10 31  1  0
 12 32  1  0
 12 33  1  0
 12 34  1  0
 14 35  1  0
 15 36  1  0
 17 37  1  0
 18 38  1  0
M  END
>  <Energy>  (305) 
988.01022741948736

>  <compound_id>  (305) 
11948

>  <target_id>  (305) 
1

>  <reference_id>  (305) 
49

>  <inspiration_ids>  (305) 
[114, 49]

>  <energy_score>  (305) 
931.5768267580172

>  <distance_score>  (305) 
15.833761487528974

>  <path>  (305) 
/opt/xchem-fragalysis-2/maxwin/BulkDock/SCRATCH/511023/C11948-P49/C11948-P49.minimised.mol

>  <scratch_subdir>  (305) 
/opt/xchem-fragalysis-2/maxwin/BulkDock/SCRATCH/511023/C11948-P49

>  <fragmenstein_runtime>  (305) 
16.478387117385864

>  <fragmenstein_outcome>  (305) 
too moved

>  <fragmenstein_mode>  (305) 
expansion

>  <fragmenstein_error>  (305) 


$$$$
C19099-P122
     RDKit          3D

 30 31  0  0  0  0  0  0  0  0999 V2000
    3.2335   -0.7335   29.7522 C   0  0  0  0  0  0  0  0  0  0  0  0
    2.3394   -1.8023   29.0918 C   0  0  0  0  0  0  0  0  0  0  0  0
    2.5915   -1.8198   27.5288 C   0  0  0  0  0  0  0  0  0  0  0  0
    4.0028   -1.8613   26.8818 C   0  0  0  0  0  0  0  0  0  0  0  0
    4.1489   -1.5195   25.5331 C   0  0  0  0  0  0  0  0  0  0  0  0
    5.3981   -1.5489   24.8985 C   0  0  0  0  0  0  0  0  0  0  0  0
    6.5004   -1.9728   25.6135 C   0  0  0  0  0  0  0  0  0  0  0  0
    6.2849   -2.3334   26.9336 C   0  0  0  0  0  0  0  0  0  0  0  0
    5.0780   -2.2808   27.5784 N   0  0  0  0  0  0  0  0  0  0  0  0
    2.6817   -3.1902   29.6679 C   0  0  0  0  0  0  0  0  0  0  0  0
    3.6467   -3.4405   30.3794 O   0  0  0  0  0  0  0  0  0  0  0  0
    1.7793   -4.1730   29.3752 O   0  0  0  0  0  0  0  0  0  0  0  0
    0.8878   -1.5363   29.4343 N   0  0  0  0  0  0  0  0  0  0  0  0
    0.3380   -0.6324   30.3242 C   0  0  0  0  0  0  0  0  0  0  0  0
   -1.0185   -0.8664   30.3771 C   0  0  0  0  0  0  0  0  0  0  0  0
   -1.2180   -1.9399   29.4999 C   0  0  0  0  0  0  0  0  0  0  0  0
   -0.0753   -2.3836   28.9594 N   0  0  0  0  0  0  0  0  0  0  0  0
    3.1053   -0.7190   30.8413 H   0  0  0  0  0  0  0  0  0  0  0  0
    4.2980   -0.9186   29.5825 H   0  0  0  0  0  0  0  0  0  0  0  0
    3.0041    0.2672   29.3690 H   0  0  0  0  0  0  0  0  0  0  0  0
    2.0985   -0.9250   27.1252 H   0  0  0  0  0  0  0  0  0  0  0  0
    2.0611   -2.6840   27.1152 H   0  0  0  0  0  0  0  0  0  0  0  0
    3.2718   -1.2427   24.9660 H   0  0  0  0  0  0  0  0  0  0  0  0
    5.4751   -1.2599   23.8542 H   0  0  0  0  0  0  0  0  0  0  0  0
    7.4842   -2.0332   25.1675 H   0  0  0  0  0  0  0  0  0  0  0  0
    7.1052   -2.6912   27.5510 H   0  0  0  0  0  0  0  0  0  0  0  0
    0.9644   -3.7965   28.9461 H   0  0  0  0  0  0  0  0  0  0  0  0
    0.9445    0.0992   30.8392 H   0  0  0  0  0  0  0  0  0  0  0  0
   -1.7524   -0.3288   30.9600 H   0  0  0  0  0  0  0  0  0  0  0  0
   -2.1453   -2.4284   29.2293 H   0  0  0  0  0  0  0  0  0  0  0  0
  1  2  1  0
  2  3  1  0
  3  4  1  0
  4  5  2  0
  5  6  1  0
  6  7  2  0
  7  8  1  0
  8  9  2  0
  2 10  1  0
 10 11  2  0
 10 12  1  0
  2 13  1  0
 13 14  1  0
 14 15  2  0
 15 16  1  0
 16 17  2  0
  9  4  1  0
 17 13  1  0
  1 18  1  0
  1 19  1  0
  1 20  1  0
  3 21  1  0
  3 22  1  0
  5 23  1  0
  6 24  1  0
  7 25  1  0
  8 26  1  0
 12 27  1  0
 14 28  1  0
 15 29  1  0
 16 30  1  0
M  END
>  <Energy>  (306) 
13.218322113249213

>  <compound_id>  (306) 
19099

>  <target_id>  (306) 
1

>  <reference_id>  (306) 
122

>  <inspiration_ids>  (306) 
[122, 7]

>  <energy_score>  (306) 
-18.395692560278235

>  <distance_score>  (306) 
14.552291349261527

>  <path>  (306) 
/opt/xchem-fragalysis-2/maxwin/BulkDock/SCRATCH/511023/C19099-P122/C19099-P122.minimised.mol

>  <scratch_subdir>  (306) 
/opt/xchem-fragalysis-2/maxwin/BulkDock/SCRATCH/511023/C19099-P122

>  <fragmenstein_runtime>  (306) 
10.773128509521484

>  <fragmenstein_outcome>  (306) 
too moved

>  <fragmenstein_mode>  (306) 
expansion

>  <fragmenstein_error>  (306) 


$$$$
C19099-P7
     RDKit          3D

 30 31  0  0  0  0  0  0  0  0999 V2000
   -1.5531   -1.2020   29.4772 C   0  0  0  0  0  0  0  0  0  0  0  0
   -2.7942   -0.6249   28.7360 C   0  0  0  0  0  0  0  0  0  0  0  0
   -2.9585   -1.4890   27.3579 C   0  0  0  0  0  0  0  0  0  0  0  0
   -3.1532   -0.9090   25.8582 C   0  0  0  0  0  0  0  0  0  0  0  0
   -3.0315   -1.7144   24.1120 C   0  0  0  0  0  0  0  0  0  0  0  0
   -2.5737   -0.7541   22.5320 C   0  0  0  0  0  0  0  0  0  0  0  0
   -2.3011    1.1737   22.6901 C   0  0  0  0  0  0  0  0  0  0  0  0
   -2.1054    1.7219   24.3577 C   0  0  0  0  0  0  0  0  0  0  0  0
   -2.4992    0.7409   25.7963 N   0  0  0  0  0  0  0  0  0  0  0  0
   -2.4886    0.8386   28.4488 C   0  0  0  0  0  0  0  0  0  0  0  0
   -1.3940    1.3830   28.5056 O   0  0  0  0  0  0  0  0  0  0  0  0
   -3.5706    1.5830   28.1275 O   0  0  0  0  0  0  0  0  0  0  0  0
   -3.8965   -0.7199   29.7584 N   0  0  0  0  0  0  0  0  0  0  0  0
   -4.2247    0.2151   30.7305 C   0  0  0  0  0  0  0  0  0  0  0  0
   -5.2903   -0.2777   31.4432 C   0  0  0  0  0  0  0  0  0  0  0  0
   -5.4953   -1.5513   30.9039 C   0  0  0  0  0  0  0  0  0  0  0  0
   -4.6263   -1.8583   29.9331 N   0  0  0  0  0  0  0  0  0  0  0  0
   -1.7020   -2.2564   29.7390 H   0  0  0  0  0  0  0  0  0  0  0  0
   -0.6493   -1.1339   28.8596 H   0  0  0  0  0  0  0  0  0  0  0  0
   -1.3464   -0.6579   30.4074 H   0  0  0  0  0  0  0  0  0  0  0  0
   -2.0296   -2.0553   27.3216 H   0  0  0  0  0  0  0  0  0  0  0  0
   -3.7804   -2.1774   27.5385 H   0  0  0  0  0  0  0  0  0  0  0  0
   -3.2247   -2.7804   24.0174 H   0  0  0  0  0  0  0  0  0  0  0  0
   -3.4217   -0.7268   21.8584 H   0  0  0  0  0  0  0  0  0  0  0  0
   -2.4195    1.8557   21.8564 H   0  0  0  0  0  0  0  0  0  0  0  0
   -1.9138    2.7577   24.6237 H   0  0  0  0  0  0  0  0  0  0  0  0
   -3.1651    2.4048   27.7795 H   0  0  0  0  0  0  0  0  0  0  0  0
   -3.7010    1.1579   30.8063 H   0  0  0  0  0  0  0  0  0  0  0  0
   -5.8316    0.2158   32.2376 H   0  0  0  0  0  0  0  0  0  0  0  0
   -6.2460   -2.2724   31.1842 H   0  0  0  0  0  0  0  0  0  0  0  0
  1  2  1  0
  2  3  1  0
  3  4  1  0
  4  5  2  0
  5  6  1  0
  6  7  2  0
  7  8  1  0
  8  9  2  0
  2 10  1  0
 10 11  2  0
 10 12  1  0
  2 13  1  0
 13 14  1  0
 14 15  2  0
 15 16  1  0
 16 17  2  0
  9  4  1  0
 17 13  1  0
  1 18  1  0
  1 19  1  0
  1 20  1  0
  3 21  1  0
  3 22  1  0
  5 23  1  0
  6 24  1  0
  7 25  1  0
  8 26  1  0
 12 27  1  0
 14 28  1  0
 15 29  1  0
 16 30  1  0
M  END
>  <Energy>  (307) 
429.21729678388004

>  <compound_id>  (307) 
19099

>  <target_id>  (307) 
1

>  <reference_id>  (307) 
7

>  <inspiration_ids>  (307) 
[122, 7]

>  <energy_score>  (307) 
397.60328211034977

>  <distance_score>  (307) 
14.474600322913421

>  <path>  (307) 
/opt/xchem-fragalysis-2/maxwin/BulkDock/SCRATCH/511023/C19099-P7/C19099-P7.minimised.mol

>  <scratch_subdir>  (307) 
/opt/xchem-fragalysis-2/maxwin/BulkDock/SCRATCH/511023/C19099-P7

>  <fragmenstein_runtime>  (307) 
7.41124153137207

>  <fragmenstein_outcome>  (307) 
too moved

>  <fragmenstein_mode>  (307) 
expansion

>  <fragmenstein_error>  (307) 


$$$$
C18745-P122
     RDKit          3D

 30 31  0  0  0  0  0  0  0  0999 V2000
   -1.3391   -7.3074   18.6253 C   0  0  0  0  0  0  0  0  0  0  0  0
   -0.6913   -8.4350   19.4652 C   0  0  0  0  0  0  0  0  0  0  0  0
    0.8033   -8.0308   19.7853 C   0  0  0  0  0  0  0  0  0  0  0  0
    1.7101   -7.4199   18.7000 C   0  0  0  0  0  0  0  0  0  0  0  0
    2.3693   -8.2181   17.7616 C   0  0  0  0  0  0  0  0  0  0  0  0
    3.2547   -7.6228   16.8711 C   0  0  0  0  0  0  0  0  0  0  0  0
    3.5566   -6.3065   16.8650 N   0  0  0  0  0  0  0  0  0  0  0  0
    2.9230   -5.5433   17.7745 C   0  0  0  0  0  0  0  0  0  0  0  0
    1.9991   -6.0433   18.6861 C   0  0  0  0  0  0  0  0  0  0  0  0
   -0.7365   -9.7114   18.6255 C   0  0  0  0  0  0  0  0  0  0  0  0
   -1.5687   -9.9792   17.7684 O   0  0  0  0  0  0  0  0  0  0  0  0
    0.2102  -10.6284   18.9115 O   0  0  0  0  0  0  0  0  0  0  0  0
   -1.4997   -8.7124   20.6945 N   0  0  0  0  0  0  0  0  0  0  0  0
   -2.8709   -8.8668   20.7876 C   0  0  0  0  0  0  0  0  0  0  0  0
   -3.1423   -9.3072   22.0589 C   0  0  0  0  0  0  0  0  0  0  0  0
   -1.8853   -9.3584   22.6852 C   0  0  0  0  0  0  0  0  0  0  0  0
   -0.8945   -8.9549   21.8846 N   0  0  0  0  0  0  0  0  0  0  0  0
   -2.3968   -7.4972   18.4135 H   0  0  0  0  0  0  0  0  0  0  0  0
   -1.2762   -6.3366   19.1233 H   0  0  0  0  0  0  0  0  0  0  0  0
   -0.8507   -7.2097   17.6483 H   0  0  0  0  0  0  0  0  0  0  0  0
    0.8004   -7.3120   20.6119 H   0  0  0  0  0  0  0  0  0  0  0  0
    1.3432   -8.8935   20.2008 H   0  0  0  0  0  0  0  0  0  0  0  0
    2.2203   -9.2920   17.7266 H   0  0  0  0  0  0  0  0  0  0  0  0
    3.7728   -8.2150   16.1215 H   0  0  0  0  0  0  0  0  0  0  0  0
    3.1780   -4.4884   17.7617 H   0  0  0  0  0  0  0  0  0  0  0  0
    1.5475   -5.3691   19.4086 H   0  0  0  0  0  0  0  0  0  0  0  0
   -0.0331  -11.4069   18.3663 H   0  0  0  0  0  0  0  0  0  0  0  0
   -3.5201   -8.7053   19.9391 H   0  0  0  0  0  0  0  0  0  0  0  0
   -4.1042   -9.5611   22.4800 H   0  0  0  0  0  0  0  0  0  0  0  0
   -1.6539   -9.6665   23.6962 H   0  0  0  0  0  0  0  0  0  0  0  0
  1  2  1  0
  2  3  1  0
  3  4  1  0
  4  5  2  0
  5  6  1  0
  6  7  2  0
  7  8  1  0
  8  9  2  0
  2 10  1  0
 10 11  2  0
 10 12  1  0
  2 13  1  0
 13 14  1  0
 14 15  2  0
 15 16  1  0
 16 17  2  0
  9  4  1  0
 17 13  1  0
  1 18  1  0
  1 19  1  0
  1 20  1  0
  3 21  1  0
  3 22  1  0
  5 23  1  0
  6 24  1  0
  8 25  1  0
  9 26  1  0
 12 27  1  0
 14 28  1  0
 15 29  1  0
 16 30  1  0
M  END
>  <Energy>  (308) 
27.837589991423798

>  <compound_id>  (308) 
18745

>  <target_id>  (308) 
1

>  <reference_id>  (308) 
122

>  <inspiration_ids>  (308) 
[122, 7]

>  <energy_score>  (308) 
-16.063804784084937

>  <distance_score>  (308) 
17.839958103423637

>  <path>  (308) 
/opt/xchem-fragalysis-2/maxwin/BulkDock/SCRATCH/511023/C18745-P122/C18745-P122.minimised.mol

>  <scratch_subdir>  (308) 
/opt/xchem-fragalysis-2/maxwin/BulkDock/SCRATCH/511023/C18745-P122

>  <fragmenstein_runtime>  (308) 
10.018269538879395

>  <fragmenstein_outcome>  (308) 
too moved

>  <fragmenstein_mode>  (308) 
expansion

>  <fragmenstein_error>  (308) 


$$$$
C18745-P7
     RDKit          3D

 30 31  0  0  0  0  0  0  0  0999 V2000
   -1.8380   -6.6939   27.7691 C   0  0  0  0  0  0  0  0  0  0  0  0
   -0.4722   -7.1989   27.4971 C   0  0  0  0  0  0  0  0  0  0  0  0
   -0.6363   -7.0741   25.7258 C   0  0  0  0  0  0  0  0  0  0  0  0
   -0.5314   -7.7947   24.3194 C   0  0  0  0  0  0  0  0  0  0  0  0
   -1.1986   -8.9813   23.9155 C   0  0  0  0  0  0  0  0  0  0  0  0
   -1.0262   -9.5636   22.6508 C   0  0  0  0  0  0  0  0  0  0  0  0
   -0.2170   -9.0692   21.6995 N   0  0  0  0  0  0  0  0  0  0  0  0
    0.3784   -7.9178   22.0270 C   0  0  0  0  0  0  0  0  0  0  0  0
    0.2343   -7.2518   23.2802 C   0  0  0  0  0  0  0  0  0  0  0  0
    0.1082   -5.8880   28.1662 C   0  0  0  0  0  0  0  0  0  0  0  0
    0.3415   -4.8611   27.5380 O   0  0  0  0  0  0  0  0  0  0  0  0
    0.2957   -5.8633   29.5108 O   0  0  0  0  0  0  0  0  0  0  0  0
   -0.3915   -8.3453   28.4545 N   0  0  0  0  0  0  0  0  0  0  0  0
   -0.2850   -9.7033   28.2931 C   0  0  0  0  0  0  0  0  0  0  0  0
   -0.2727  -10.2947   29.5429 C   0  0  0  0  0  0  0  0  0  0  0  0
   -0.4893   -9.2595   30.4561 C   0  0  0  0  0  0  0  0  0  0  0  0
   -0.7373   -8.1044   29.8223 N   0  0  0  0  0  0  0  0  0  0  0  0
   -2.5513   -6.9709   27.0107 H   0  0  0  0  0  0  0  0  0  0  0  0
   -2.2600   -7.0482   28.6964 H   0  0  0  0  0  0  0  0  0  0  0  0
   -1.8072   -5.6191   27.7952 H   0  0  0  0  0  0  0  0  0  0  0  0
   -1.5720   -6.5510   25.5419 H   0  0  0  0  0  0  0  0  0  0  0  0
   -0.0037   -6.2190   25.5824 H   0  0  0  0  0  0  0  0  0  0  0  0
   -1.8200   -9.5393   24.6163 H   0  0  0  0  0  0  0  0  0  0  0  0
   -1.5383  -10.4873   22.3976 H   0  0  0  0  0  0  0  0  0  0  0  0
    0.9466   -7.4751   21.2124 H   0  0  0  0  0  0  0  0  0  0  0  0
    0.6757   -6.2698   23.4068 H   0  0  0  0  0  0  0  0  0  0  0  0
    0.1048   -6.7400   29.9396 H   0  0  0  0  0  0  0  0  0  0  0  0
   -0.3081  -10.1800   27.3327 H   0  0  0  0  0  0  0  0  0  0  0  0
   -0.1586  -11.3499   29.7488 H   0  0  0  0  0  0  0  0  0  0  0  0
   -0.5451   -9.3022   31.5369 H   0  0  0  0  0  0  0  0  0  0  0  0
  1  2  1  0
  2  3  1  0
  3  4  1  0
  4  5  2  0
  5  6  1  0
  6  7  2  0
  7  8  1  0
  8  9  2  0
  2 10  1  0
 10 11  2  0
 10 12  1  0
  2 13  1  0
 13 14  1  0
 14 15  2  0
 15 16  1  0
 16 17  2  0
  9  4  1  0
 17 13  1  0
  1 18  1  0
  1 19  1  0
  1 20  1  0
  3 21  1  0
  3 22  1  0
  5 23  1  0
  6 24  1  0
  8 25  1  0
  9 26  1  0
 12 27  1  0
 14 28  1  0
 15 29  1  0
 16 30  1  0
M  END
>  <Energy>  (309) 
130.6804827779778

>  <compound_id>  (309) 
18745

>  <target_id>  (309) 
1

>  <reference_id>  (309) 
7

>  <inspiration_ids>  (309) 
[122, 7]

>  <energy_score>  (309) 
86.7790880024695

>  <distance_score>  (309) 
16.1997890033195

>  <path>  (309) 
/opt/xchem-fragalysis-2/maxwin/BulkDock/SCRATCH/511023/C18745-P7/C18745-P7.minimised.mol

>  <scratch_subdir>  (309) 
/opt/xchem-fragalysis-2/maxwin/BulkDock/SCRATCH/511023/C18745-P7

>  <fragmenstein_runtime>  (309) 
7.847043514251709

>  <fragmenstein_outcome>  (309) 
too moved

>  <fragmenstein_mode>  (309) 
expansion

>  <fragmenstein_error>  (309) 


$$$$
C19100-P122
     RDKit          3D

 41 42  0  0  0  0  0  0  0  0999 V2000
    3.3154    5.5077   23.3134 C   0  0  0  0  0  0  0  0  0  0  0  0
    2.1515    4.5728   23.0129 C   0  0  0  0  0  0  0  0  0  0  0  0
    2.3928    3.3895   21.5913 S   0  0  0  0  0  0  0  0  0  0  0  0
    3.9787    3.6454   20.7405 C   0  0  0  0  0  0  0  0  0  0  0  0
    4.0429    3.3308   19.3767 C   0  0  0  0  0  0  0  0  0  0  0  0
    5.2770    3.2976   18.7125 C   0  0  0  0  0  0  0  0  0  0  0  0
    6.4297    3.5923   19.4201 C   0  0  0  0  0  0  0  0  0  0  0  0
    6.2827    3.9298   20.7550 C   0  0  0  0  0  0  0  0  0  0  0  0
    5.0952    3.9663   21.4245 N   0  0  0  0  0  0  0  0  0  0  0  0
    1.6926    3.7955   24.3275 C   0  0  0  0  0  0  0  0  0  0  0  0
    2.5456    3.4327   25.0935 O   0  0  0  0  0  0  0  0  0  0  0  0
    0.2296    3.6978   24.4084 N   0  0  0  0  0  0  0  0  0  0  0  0
   -0.5972    3.2428   25.4292 C   0  0  0  0  0  0  0  0  0  0  0  0
   -2.0232    3.2706   25.4442 C   0  0  0  0  0  0  0  0  0  0  0  0
   -2.4152    2.7149   26.6463 C   0  0  0  0  0  0  0  0  0  0  0  0
   -1.2553    2.4086   27.3056 N   0  0  0  0  0  0  0  0  0  0  0  0
   -1.0925    1.7296   28.6005 C   0  0  0  0  0  0  0  0  0  0  0  0
    0.3038    1.9589   29.2171 C   0  0  0  0  0  0  0  0  0  0  0  0
   -1.2940    0.2193   28.3894 C   0  0  0  0  0  0  0  0  0  0  0  0
   -2.0966    2.2558   29.6189 C   0  0  0  0  0  0  0  0  0  0  0  0
   -2.8122    1.5882   30.3519 O   0  0  0  0  0  0  0  0  0  0  0  0
   -2.1370    3.6018   29.7231 O   0  0  0  0  0  0  0  0  0  0  0  0
   -0.1612    2.6861   26.5602 N   0  0  0  0  0  0  0  0  0  0  0  0
    3.0260    6.2177   24.0974 H   0  0  0  0  0  0  0  0  0  0  0  0
    3.5954    6.0964   22.4342 H   0  0  0  0  0  0  0  0  0  0  0  0
    4.1961    4.9822   23.6900 H   0  0  0  0  0  0  0  0  0  0  0  0
    1.3154    5.2120   22.7045 H   0  0  0  0  0  0  0  0  0  0  0  0
    3.1365    3.0548   18.8419 H   0  0  0  0  0  0  0  0  0  0  0  0
    5.3210    3.0313   17.6610 H   0  0  0  0  0  0  0  0  0  0  0  0
    7.4058    3.5767   18.9515 H   0  0  0  0  0  0  0  0  0  0  0  0
    7.1481    4.1869   21.3606 H   0  0  0  0  0  0  0  0  0  0  0  0
   -0.1724    4.0337   23.5458 H   0  0  0  0  0  0  0  0  0  0  0  0
   -2.6834    3.6515   24.6773 H   0  0  0  0  0  0  0  0  0  0  0  0
   -3.3932    2.5381   27.0689 H   0  0  0  0  0  0  0  0  0  0  0  0
    0.3705    1.5151   30.2177 H   0  0  0  0  0  0  0  0  0  0  0  0
    0.5264    3.0277   29.3204 H   0  0  0  0  0  0  0  0  0  0  0  0
    1.0965    1.5124   28.6055 H   0  0  0  0  0  0  0  0  0  0  0  0
   -1.2083   -0.3327   29.3324 H   0  0  0  0  0  0  0  0  0  0  0  0
   -0.5490   -0.1865   27.6951 H   0  0  0  0  0  0  0  0  0  0  0  0
   -2.2817   -0.0016   27.9706 H   0  0  0  0  0  0  0  0  0  0  0  0
   -2.7827    3.7762   30.4397 H   0  0  0  0  0  0  0  0  0  0  0  0
  1  2  1  0
  2  3  1  0
  3  4  1  0
  4  5  2  0
  5  6  1  0
  6  7  2  0
  7  8  1  0
  8  9  2  0
  2 10  1  0
 10 11  2  0
 10 12  1  0
 12 13  1  0
 13 14  1  0
 14 15  2  0
 15 16  1  0
 16 17  1  0
 17 18  1  0
 17 19  1  0
 17 20  1  0
 20 21  2  0
 20 22  1  0
 16 23  1  0
  9  4  1  0
 23 13  2  0
  1 24  1  0
  1 25  1  0
  1 26  1  0
  2 27  1  0
  5 28  1  0
  6 29  1  0
  7 30  1  0
  8 31  1  0
 12 32  1  0
 14 33  1  0
 15 34  1  0
 18 35  1  0
 18 36  1  0
 18 37  1  0
 19 38  1  0
 19 39  1  0
 19 40  1  0
 22 41  1  0
M  END
>  <Energy>  (310) 
9.6951435822138041

>  <compound_id>  (310) 
19100

>  <target_id>  (310) 
1

>  <reference_id>  (310) 
122

>  <inspiration_ids>  (310) 
[122, 7]

>  <energy_score>  (310) 
-50.548958557792844

>  <distance_score>  (310) 
13.993231201112954

>  <path>  (310) 
/opt/xchem-fragalysis-2/maxwin/BulkDock/SCRATCH/511023/C19100-P122/C19100-P122.minimised.mol

>  <scratch_subdir>  (310) 
/opt/xchem-fragalysis-2/maxwin/BulkDock/SCRATCH/511023/C19100-P122

>  <fragmenstein_runtime>  (310) 
10.87063479423523

>  <fragmenstein_outcome>  (310) 
too moved

>  <fragmenstein_mode>  (310) 
expansion

>  <fragmenstein_error>  (310) 


$$$$
C19100-P7
     RDKit          3D

 41 42  0  0  0  0  0  0  0  0999 V2000
    4.8419   -0.5068   24.4664 C   0  0  0  0  0  0  0  0  0  0  0  0
    4.9866   -1.8017   23.5295 C   0  0  0  0  0  0  0  0  0  0  0  0
    5.7785   -2.0659   21.2409 S   0  0  0  0  0  0  0  0  0  0  0  0
    6.5791   -0.2470   20.2123 C   0  0  0  0  0  0  0  0  0  0  0  0
    6.2244    1.0808   20.6079 C   0  0  0  0  0  0  0  0  0  0  0  0
    6.3404    2.1740   19.7332 C   0  0  0  0  0  0  0  0  0  0  0  0
    6.6734    1.9534   18.4128 C   0  0  0  0  0  0  0  0  0  0  0  0
    6.8844    0.6473   18.0491 C   0  0  0  0  0  0  0  0  0  0  0  0
    6.8552   -0.4089   18.9176 N   0  0  0  0  0  0  0  0  0  0  0  0
    3.6548   -2.4703   24.2725 C   0  0  0  0  0  0  0  0  0  0  0  0
    2.8202   -3.0100   23.5920 O   0  0  0  0  0  0  0  0  0  0  0  0
    3.6733   -2.1622   25.8551 N   0  0  0  0  0  0  0  0  0  0  0  0
    2.6776   -2.3508   26.8481 C   0  0  0  0  0  0  0  0  0  0  0  0
    1.7293   -3.2757   27.3673 C   0  0  0  0  0  0  0  0  0  0  0  0
    1.0049   -2.6907   28.3863 C   0  0  0  0  0  0  0  0  0  0  0  0
    1.5152   -1.4457   28.4768 N   0  0  0  0  0  0  0  0  0  0  0  0
    1.0764   -0.3167   29.3084 C   0  0  0  0  0  0  0  0  0  0  0  0
   -0.2602   -0.6135   30.0216 C   0  0  0  0  0  0  0  0  0  0  0  0
    2.1416   -0.0100   30.3752 C   0  0  0  0  0  0  0  0  0  0  0  0
    0.8905    0.9495   28.4530 C   0  0  0  0  0  0  0  0  0  0  0  0
    0.0363    1.8008   28.6811 O   0  0  0  0  0  0  0  0  0  0  0  0
    1.7789    1.1331   27.4456 O   0  0  0  0  0  0  0  0  0  0  0  0
    2.6226   -1.2899   27.7030 N   0  0  0  0  0  0  0  0  0  0  0  0
    5.5183   -0.5182   25.3098 H   0  0  0  0  0  0  0  0  0  0  0  0
    3.8949   -0.2854   24.9881 H   0  0  0  0  0  0  0  0  0  0  0  0
    4.8144    0.3358   23.8439 H   0  0  0  0  0  0  0  0  0  0  0  0
    5.7400   -2.3498   24.0942 H   0  0  0  0  0  0  0  0  0  0  0  0
    5.7118    1.2658   21.5445 H   0  0  0  0  0  0  0  0  0  0  0  0
    6.0682    3.1691   20.0750 H   0  0  0  0  0  0  0  0  0  0  0  0
    6.7223    2.7607   17.6928 H   0  0  0  0  0  0  0  0  0  0  0  0
    7.1198    0.3839   17.0229 H   0  0  0  0  0  0  0  0  0  0  0  0
    4.5587   -1.7714   26.1128 H   0  0  0  0  0  0  0  0  0  0  0  0
    1.5210   -4.2777   27.0571 H   0  0  0  0  0  0  0  0  0  0  0  0
    0.1799   -3.0640   28.9758 H   0  0  0  0  0  0  0  0  0  0  0  0
   -0.5852    0.2357   30.6345 H   0  0  0  0  0  0  0  0  0  0  0  0
   -1.0607   -0.8156   29.2995 H   0  0  0  0  0  0  0  0  0  0  0  0
   -0.1786   -1.4783   30.6900 H   0  0  0  0  0  0  0  0  0  0  0  0
    3.0979    0.2785   29.9233 H   0  0  0  0  0  0  0  0  0  0  0  0
    1.8299    0.8211   31.0186 H   0  0  0  0  0  0  0  0  0  0  0  0
    2.3272   -0.8821   31.0128 H   0  0  0  0  0  0  0  0  0  0  0  0
    2.3732    0.3448   27.3172 H   0  0  0  0  0  0  0  0  0  0  0  0
  1  2  1  0
  2  3  1  0
  3  4  1  0
  4  5  2  0
  5  6  1  0
  6  7  2  0
  7  8  1  0
  8  9  2  0
  2 10  1  0
 10 11  2  0
 10 12  1  0
 12 13  1  0
 13 14  1  0
 14 15  2  0
 15 16  1  0
 16 17  1  0
 17 18  1  0
 17 19  1  0
 17 20  1  0
 20 21  2  0
 20 22  1  0
 16 23  1  0
  9  4  1  0
 23 13  2  0
  1 24  1  0
  1 25  1  0
  1 26  1  0
  2 27  1  0
  5 28  1  0
  6 29  1  0
  7 30  1  0
  8 31  1  0
 12 32  1  0
 14 33  1  0
 15 34  1  0
 18 35  1  0
 18 36  1  0
 18 37  1  0
 19 38  1  0
 19 39  1  0
 19 40  1  0
 22 41  1  0
M  END
>  <Energy>  (311) 
225.20663070339222

>  <compound_id>  (311) 
19100

>  <target_id>  (311) 
1

>  <reference_id>  (311) 
7

>  <inspiration_ids>  (311) 
[122, 7]

>  <energy_score>  (311) 
164.96252856338515

>  <distance_score>  (311) 
14.798763862662964

>  <path>  (311) 
/opt/xchem-fragalysis-2/maxwin/BulkDock/SCRATCH/511023/C19100-P7/C19100-P7.minimised.mol

>  <scratch_subdir>  (311) 
/opt/xchem-fragalysis-2/maxwin/BulkDock/SCRATCH/511023/C19100-P7

>  <fragmenstein_runtime>  (311) 
15.96969199180603

>  <fragmenstein_outcome>  (311) 
too moved

>  <fragmenstein_mode>  (311) 
expansion

>  <fragmenstein_error>  (311) 


$$$$
C19101-P122
     RDKit          3D

 40 41  0  0  0  0  0  0  0  0999 V2000
    4.5120   -6.8326   14.7734 C   0  0  0  0  0  0  0  0  0  0  0  0
    5.1223   -6.2669   16.1095 C   0  0  0  0  0  0  0  0  0  0  0  0
    6.8676   -5.5928   15.9926 C   0  0  0  0  0  0  0  0  0  0  0  0
    7.7982   -3.7926   15.5893 C   0  0  0  0  0  0  0  0  0  0  0  0
    7.1861   -2.6121   15.1446 C   0  0  0  0  0  0  0  0  0  0  0  0
    7.9944   -1.4561   15.1180 C   0  0  0  0  0  0  0  0  0  0  0  0
    9.3820   -1.4650   15.1643 C   0  0  0  0  0  0  0  0  0  0  0  0
    9.9241   -2.6972   14.9981 C   0  0  0  0  0  0  0  0  0  0  0  0
    9.1321   -3.8110   15.1073 N   0  0  0  0  0  0  0  0  0  0  0  0
    5.4724   -7.5825   16.8754 C   0  0  0  0  0  0  0  0  0  0  0  0
    5.4689   -7.7702   18.0816 O   0  0  0  0  0  0  0  0  0  0  0  0
    5.9186   -8.5951   16.0951 O   0  0  0  0  0  0  0  0  0  0  0  0
    3.9381   -5.6819   16.8795 N   0  0  0  0  0  0  0  0  0  0  0  0
    3.8212   -5.2321   18.1732 C   0  0  0  0  0  0  0  0  0  0  0  0
    2.5824   -4.6610   18.3362 C   0  0  0  0  0  0  0  0  0  0  0  0
    2.1723   -3.6059   19.2922 C   0  0  0  0  0  0  0  0  0  0  0  0
    2.0265   -2.2851   18.4697 C   0  0  0  0  0  0  0  0  0  0  0  0
    3.3333   -1.7498   17.8998 C   0  0  0  0  0  0  0  0  0  0  0  0
    3.1562   -0.4222   17.4064 O   0  0  0  0  0  0  0  0  0  0  0  0
    1.8597   -5.1734   17.2606 C   0  0  0  0  0  0  0  0  0  0  0  0
    2.6535   -5.8063   16.3880 N   0  0  0  0  0  0  0  0  0  0  0  0
    3.7555   -7.6052   14.9770 H   0  0  0  0  0  0  0  0  0  0  0  0
    3.9964   -6.0602   14.1902 H   0  0  0  0  0  0  0  0  0  0  0  0
    5.2484   -7.3326   14.1370 H   0  0  0  0  0  0  0  0  0  0  0  0
    6.9914   -5.8009   17.0651 H   0  0  0  0  0  0  0  0  0  0  0  0
    7.4672   -6.4166   15.5866 H   0  0  0  0  0  0  0  0  0  0  0  0
    6.1291   -2.5265   14.9176 H   0  0  0  0  0  0  0  0  0  0  0  0
    7.5397   -0.5038   15.0030 H   0  0  0  0  0  0  0  0  0  0  0  0
    9.9655   -0.5596   15.0687 H   0  0  0  0  0  0  0  0  0  0  0  0
   10.9681   -2.8716   14.7726 H   0  0  0  0  0  0  0  0  0  0  0  0
    6.0666   -9.3362   16.7212 H   0  0  0  0  0  0  0  0  0  0  0  0
    4.6798   -5.2066   18.7976 H   0  0  0  0  0  0  0  0  0  0  0  0
    2.9557   -3.5070   20.0479 H   0  0  0  0  0  0  0  0  0  0  0  0
    1.2727   -3.9457   19.7995 H   0  0  0  0  0  0  0  0  0  0  0  0
    1.3167   -2.4240   17.6424 H   0  0  0  0  0  0  0  0  0  0  0  0
    1.5996   -1.4730   19.0522 H   0  0  0  0  0  0  0  0  0  0  0  0
    3.6589   -2.3606   17.0564 H   0  0  0  0  0  0  0  0  0  0  0  0
    4.1201   -1.7230   18.6592 H   0  0  0  0  0  0  0  0  0  0  0  0
    2.7409    0.0943   18.1229 H   0  0  0  0  0  0  0  0  0  0  0  0
    0.8127   -5.0381   17.0197 H   0  0  0  0  0  0  0  0  0  0  0  0
  1  2  1  0
  2  3  1  0
  3  4  1  0
  4  5  2  0
  5  6  1  0
  6  7  2  0
  7  8  1  0
  8  9  2  0
  2 10  1  0
 10 11  2  0
 10 12  1  0
  2 13  1  0
 13 14  1  0
 14 15  2  0
 15 16  1  0
 16 17  1  0
 17 18  1  0
 18 19  1  0
 15 20  1  0
 20 21  2  0
  9  4  1  0
 21 13  1  0
  1 22  1  0
  1 23  1  0
  1 24  1  0
  3 25  1  0
  3 26  1  0
  5 27  1  0
  6 28  1  0
  7 29  1  0
  8 30  1  0
 12 31  1  0
 14 32  1  0
 16 33  1  0
 16 34  1  0
 17 35  1  0
 17 36  1  0
 18 37  1  0
 18 38  1  0
 19 39  1  0
 20 40  1  0
M  END
>  <Energy>  (312) 
196.42718784486436

>  <compound_id>  (312) 
19101

>  <target_id>  (312) 
1

>  <reference_id>  (312) 
122

>  <inspiration_ids>  (312) 
[122, 7]

>  <energy_score>  (312) 
150.72978712911623

>  <distance_score>  (312) 
21.19393971475391

>  <path>  (312) 
/opt/xchem-fragalysis-2/maxwin/BulkDock/SCRATCH/511023/C19101-P122/C19101-P122.minimised.mol

>  <scratch_subdir>  (312) 
/opt/xchem-fragalysis-2/maxwin/BulkDock/SCRATCH/511023/C19101-P122

>  <fragmenstein_runtime>  (312) 
8.289313554763794

>  <fragmenstein_outcome>  (312) 
too moved

>  <fragmenstein_mode>  (312) 
expansion

>  <fragmenstein_error>  (312) 


$$$$
C19101-P7
     RDKit          3D

 40 41  0  0  0  0  0  0  0  0999 V2000
    0.9775    0.9105   30.1136 C   0  0  0  0  0  0  0  0  0  0  0  0
    0.4188   -0.4581   29.6805 C   0  0  0  0  0  0  0  0  0  0  0  0
    0.6720   -0.6565   28.1267 C   0  0  0  0  0  0  0  0  0  0  0  0
    2.1123   -0.6290   27.5187 C   0  0  0  0  0  0  0  0  0  0  0  0
    2.7399   -1.8004   27.0805 C   0  0  0  0  0  0  0  0  0  0  0  0
    3.9164   -1.7419   26.3108 C   0  0  0  0  0  0  0  0  0  0  0  0
    4.4701   -0.5137   25.9982 C   0  0  0  0  0  0  0  0  0  0  0  0
    3.8180    0.6028   26.4849 C   0  0  0  0  0  0  0  0  0  0  0  0
    2.6727    0.5763   27.2366 N   0  0  0  0  0  0  0  0  0  0  0  0
    1.1379   -1.6216   30.3525 C   0  0  0  0  0  0  0  0  0  0  0  0
    0.9779   -2.8105   30.1102 O   0  0  0  0  0  0  0  0  0  0  0  0
    2.0181   -1.2723   31.3142 O   0  0  0  0  0  0  0  0  0  0  0  0
   -1.0355   -0.4883   30.0984 N   0  0  0  0  0  0  0  0  0  0  0  0
   -1.5701   -0.7856   31.3530 C   0  0  0  0  0  0  0  0  0  0  0  0
   -2.9184   -0.4621   31.3398 C   0  0  0  0  0  0  0  0  0  0  0  0
   -3.9573   -0.5760   32.4240 C   0  0  0  0  0  0  0  0  0  0  0  0
   -4.1849    0.7486   33.1516 C   0  0  0  0  0  0  0  0  0  0  0  0
   -5.3493    0.6663   34.1288 C   0  0  0  0  0  0  0  0  0  0  0  0
   -5.0881   -0.3140   35.1233 O   0  0  0  0  0  0  0  0  0  0  0  0
   -3.1067    0.0365   30.0347 C   0  0  0  0  0  0  0  0  0  0  0  0
   -1.9948    0.0344   29.2926 N   0  0  0  0  0  0  0  0  0  0  0  0
    0.8005    1.0988   31.1794 H   0  0  0  0  0  0  0  0  0  0  0  0
    0.5007    1.7252   29.5565 H   0  0  0  0  0  0  0  0  0  0  0  0
    2.0587    0.9802   29.9526 H   0  0  0  0  0  0  0  0  0  0  0  0
    0.2079   -1.6051   27.8249 H   0  0  0  0  0  0  0  0  0  0  0  0
    0.1110    0.1176   27.5848 H   0  0  0  0  0  0  0  0  0  0  0  0
    2.2704   -2.7625   27.2618 H   0  0  0  0  0  0  0  0  0  0  0  0
    4.3555   -2.6540   25.9203 H   0  0  0  0  0  0  0  0  0  0  0  0
    5.3479   -0.4260   25.3715 H   0  0  0  0  0  0  0  0  0  0  0  0
    4.1911    1.5991   26.2646 H   0  0  0  0  0  0  0  0  0  0  0  0
    2.4072   -2.1218   31.6122 H   0  0  0  0  0  0  0  0  0  0  0  0
   -0.9418   -1.1764   32.1413 H   0  0  0  0  0  0  0  0  0  0  0  0
   -4.8959   -0.9210   31.9719 H   0  0  0  0  0  0  0  0  0  0  0  0
   -3.6457   -1.3505   33.1354 H   0  0  0  0  0  0  0  0  0  0  0  0
   -3.2695    1.0179   33.6934 H   0  0  0  0  0  0  0  0  0  0  0  0
   -4.3827    1.5504   32.4301 H   0  0  0  0  0  0  0  0  0  0  0  0
   -6.2776    0.4012   33.6125 H   0  0  0  0  0  0  0  0  0  0  0  0
   -5.4881    1.6324   34.6244 H   0  0  0  0  0  0  0  0  0  0  0  0
   -5.8023   -0.2526   35.7800 H   0  0  0  0  0  0  0  0  0  0  0  0
   -4.0166    0.4222   29.5956 H   0  0  0  0  0  0  0  0  0  0  0  0
  1  2  1  0
  2  3  1  0
  3  4  1  0
  4  5  2  0
  5  6  1  0
  6  7  2  0
  7  8  1  0
  8  9  2  0
  2 10  1  0
 10 11  2  0
 10 12  1  0
  2 13  1  0
 13 14  1  0
 14 15  2  0
 15 16  1  0
 16 17  1  0
 17 18  1  0
 18 19  1  0
 15 20  1  0
 20 21  2  0
  9  4  1  0
 21 13  1  0
  1 22  1  0
  1 23  1  0
  1 24  1  0
  3 25  1  0
  3 26  1  0
  5 27  1  0
  6 28  1  0
  7 29  1  0
  8 30  1  0
 12 31  1  0
 14 32  1  0
 16 33  1  0
 16 34  1  0
 17 35  1  0
 17 36  1  0
 18 37  1  0
 18 38  1  0
 19 39  1  0
 20 40  1  0
M  END
>  <Energy>  (313) 
12.503971492606084

>  <compound_id>  (313) 
19101

>  <target_id>  (313) 
1

>  <reference_id>  (313) 
7

>  <inspiration_ids>  (313) 
[122, 7]

>  <energy_score>  (313) 
-33.19342922313973

>  <distance_score>  (313) 
14.27016593682922

>  <path>  (313) 
/opt/xchem-fragalysis-2/maxwin/BulkDock/SCRATCH/511023/C19101-P7/C19101-P7.minimised.mol

>  <scratch_subdir>  (313) 
/opt/xchem-fragalysis-2/maxwin/BulkDock/SCRATCH/511023/C19101-P7

>  <fragmenstein_runtime>  (313) 
10.887831211090088

>  <fragmenstein_outcome>  (313) 
too moved

>  <fragmenstein_mode>  (313) 
expansion

>  <fragmenstein_error>  (313) 


$$$$
C19102-P122
     RDKit          3D

 31 32  0  0  0  0  0  0  0  0999 V2000
    0.4015   -2.6838   31.7685 C   0  0  0  0  0  0  0  0  0  0  0  0
   -0.2436   -3.1318   30.4427 C   0  0  0  0  0  0  0  0  0  0  0  0
    0.7735   -3.9507   29.6546 C   0  0  0  0  0  0  0  0  0  0  0  0
   -1.4151   -4.1026   30.6722 C   0  0  0  0  0  0  0  0  0  0  0  0
   -2.2617   -4.4132   29.8415 O   0  0  0  0  0  0  0  0  0  0  0  0
   -1.4112   -4.7027   31.8813 O   0  0  0  0  0  0  0  0  0  0  0  0
   -0.7706   -1.9304   29.7661 N   0  0  0  0  0  0  0  0  0  0  0  0
   -1.9873   -1.4607   30.2979 N   0  0  0  0  0  0  0  0  0  0  0  0
   -2.1258   -0.2433   29.7934 C   0  0  0  0  0  0  0  0  0  0  0  0
   -3.2648    0.5727   30.0897 C   0  0  0  0  0  0  0  0  0  0  0  0
   -4.1796    1.2684   30.2636 N   0  0  0  0  0  0  0  0  0  0  0  0
   -1.0390    0.0626   28.9231 C   0  0  0  0  0  0  0  0  0  0  0  0
   -0.1130   -1.0285   28.8046 C   0  0  0  0  0  0  0  0  0  0  0  0
    1.3933   -1.0965   27.7935 C   0  0  0  0  0  0  0  0  0  0  0  0
    2.1560   -2.1917   27.2428 C   0  0  0  0  0  0  0  0  0  0  0  0
    3.3285   -2.0963   26.3172 C   0  0  0  0  0  0  0  0  0  0  0  0
    3.8326   -0.9024   25.8922 C   0  0  0  0  0  0  0  0  0  0  0  0
    3.1239    0.1396   26.4253 C   0  0  0  0  0  0  0  0  0  0  0  0
    1.9506    0.0806   27.3051 N   0  0  0  0  0  0  0  0  0  0  0  0
    1.1938   -1.9464   31.5932 H   0  0  0  0  0  0  0  0  0  0  0  0
    0.8495   -3.5280   32.3055 H   0  0  0  0  0  0  0  0  0  0  0  0
   -0.3329   -2.2243   32.4408 H   0  0  0  0  0  0  0  0  0  0  0  0
    1.7330   -3.4328   29.5868 H   0  0  0  0  0  0  0  0  0  0  0  0
    0.9776   -4.9100   30.1475 H   0  0  0  0  0  0  0  0  0  0  0  0
    0.3971   -4.1884   28.6544 H   0  0  0  0  0  0  0  0  0  0  0  0
   -2.2292   -5.2457   31.9197 H   0  0  0  0  0  0  0  0  0  0  0  0
   -0.9020    0.9873   28.3756 H   0  0  0  0  0  0  0  0  0  0  0  0
    1.8129   -3.2026   27.4168 H   0  0  0  0  0  0  0  0  0  0  0  0
    3.7296   -2.9948   25.8792 H   0  0  0  0  0  0  0  0  0  0  0  0
    4.6199   -0.8174   25.1767 H   0  0  0  0  0  0  0  0  0  0  0  0
    3.3732    1.1668   26.1784 H   0  0  0  0  0  0  0  0  0  0  0  0
  1  2  1  0
  2  3  1  0
  2  4  1  0
  4  5  2  0
  4  6  1  0
  2  7  1  0
  7  8  1  0
  8  9  2  0
  9 10  1  0
 10 11  3  0
  9 12  1  0
 12 13  2  0
 13 14  1  0
 14 15  2  0
 15 16  1  0
 16 17  2  0
 17 18  1  0
 18 19  2  0
 13  7  1  0
 19 14  1  0
  1 20  1  0
  1 21  1  0
  1 22  1  0
  3 23  1  0
  3 24  1  0
  3 25  1  0
  6 26  1  0
 12 27  1  0
 15 28  1  0
 16 29  1  0
 17 30  1  0
 18 31  1  0
M  END
>  <Energy>  (314) 
124.53071788410828

>  <compound_id>  (314) 
19102

>  <target_id>  (314) 
1

>  <reference_id>  (314) 
122

>  <inspiration_ids>  (314) 
[122, 7]

>  <energy_score>  (314) 
31.06748309848342

>  <distance_score>  (314) 
14.03368765784075

>  <path>  (314) 
/opt/xchem-fragalysis-2/maxwin/BulkDock/SCRATCH/511023/C19102-P122/C19102-P122.minimised.mol

>  <scratch_subdir>  (314) 
/opt/xchem-fragalysis-2/maxwin/BulkDock/SCRATCH/511023/C19102-P122

>  <fragmenstein_runtime>  (314) 
3.76539945602417

>  <fragmenstein_outcome>  (314) 
too moved

>  <fragmenstein_mode>  (314) 
expansion

>  <fragmenstein_error>  (314) 


$$$$
C19102-P7
     RDKit          3D

 31 32  0  0  0  0  0  0  0  0999 V2000
    0.0262   -4.2754   29.3232 C   0  0  0  0  0  0  0  0  0  0  0  0
    0.3253   -3.0526   30.2004 C   0  0  0  0  0  0  0  0  0  0  0  0
   -0.1484   -3.3721   31.6393 C   0  0  0  0  0  0  0  0  0  0  0  0
    1.8111   -2.7503   30.3556 C   0  0  0  0  0  0  0  0  0  0  0  0
    2.2962   -1.7512   30.8646 O   0  0  0  0  0  0  0  0  0  0  0  0
    2.6354   -3.7308   29.9304 O   0  0  0  0  0  0  0  0  0  0  0  0
   -0.3818   -1.8793   29.6445 N   0  0  0  0  0  0  0  0  0  0  0  0
   -1.6813   -1.6157   30.1083 N   0  0  0  0  0  0  0  0  0  0  0  0
   -1.9271   -0.3854   29.6619 C   0  0  0  0  0  0  0  0  0  0  0  0
   -3.1520    0.2915   29.9645 C   0  0  0  0  0  0  0  0  0  0  0  0
   -4.1524    0.8566   30.1388 N   0  0  0  0  0  0  0  0  0  0  0  0
   -0.8791    0.0504   28.7867 C   0  0  0  0  0  0  0  0  0  0  0  0
    0.1322   -0.9573   28.6348 C   0  0  0  0  0  0  0  0  0  0  0  0
    1.6320   -0.9979   27.6166 C   0  0  0  0  0  0  0  0  0  0  0  0
    2.3881   -2.1129   27.1063 C   0  0  0  0  0  0  0  0  0  0  0  0
    3.5386   -2.0525   26.1457 C   0  0  0  0  0  0  0  0  0  0  0  0
    4.0556   -0.8740   25.6764 C   0  0  0  0  0  0  0  0  0  0  0  0
    3.3326    0.1867   26.1609 C   0  0  0  0  0  0  0  0  0  0  0  0
    2.1748    0.1621   27.0743 N   0  0  0  0  0  0  0  0  0  0  0  0
    0.3296   -4.1201   28.2850 H   0  0  0  0  0  0  0  0  0  0  0  0
   -1.0456   -4.5008   29.3146 H   0  0  0  0  0  0  0  0  0  0  0  0
    0.5404   -5.1703   29.6907 H   0  0  0  0  0  0  0  0  0  0  0  0
   -1.1993   -3.6829   31.6656 H   0  0  0  0  0  0  0  0  0  0  0  0
   -0.0423   -2.5016   32.2983 H   0  0  0  0  0  0  0  0  0  0  0  0
    0.4436   -4.1852   32.0772 H   0  0  0  0  0  0  0  0  0  0  0  0
    3.5326   -3.3539   30.0789 H   0  0  0  0  0  0  0  0  0  0  0  0
   -0.8416    0.9901   28.2497 H   0  0  0  0  0  0  0  0  0  0  0  0
    2.0494   -3.1100   27.3636 H   0  0  0  0  0  0  0  0  0  0  0  0
    3.9103   -2.9798   25.7389 H   0  0  0  0  0  0  0  0  0  0  0  0
    4.8523   -0.7950   24.9579 H   0  0  0  0  0  0  0  0  0  0  0  0
    3.5610    1.2014   25.8411 H   0  0  0  0  0  0  0  0  0  0  0  0
  1  2  1  0
  2  3  1  0
  2  4  1  0
  4  5  2  0
  4  6  1  0
  2  7  1  0
  7  8  1  0
  8  9  2  0
  9 10  1  0
 10 11  3  0
  9 12  1  0
 12 13  2  0
 13 14  1  0
 14 15  2  0
 15 16  1  0
 16 17  2  0
 17 18  1  0
 18 19  2  0
 13  7  1  0
 19 14  1  0
  1 20  1  0
  1 21  1  0
  1 22  1  0
  3 23  1  0
  3 24  1  0
  3 25  1  0
  6 26  1  0
 12 27  1  0
 15 28  1  0
 16 29  1  0
 17 30  1  0
 18 31  1  0
M  END
>  <Energy>  (315) 
114.96327522610618

>  <compound_id>  (315) 
19102

>  <target_id>  (315) 
1

>  <reference_id>  (315) 
7

>  <inspiration_ids>  (315) 
[122, 7]

>  <energy_score>  (315) 
21.50004044048194

>  <distance_score>  (315) 
15.020231423769111

>  <path>  (315) 
/opt/xchem-fragalysis-2/maxwin/BulkDock/SCRATCH/511023/C19102-P7/C19102-P7.minimised.mol

>  <scratch_subdir>  (315) 
/opt/xchem-fragalysis-2/maxwin/BulkDock/SCRATCH/511023/C19102-P7

>  <fragmenstein_runtime>  (315) 
3.971970319747925

>  <fragmenstein_outcome>  (315) 
too moved

>  <fragmenstein_mode>  (315) 
expansion

>  <fragmenstein_error>  (315) 


$$$$
C15161-P122
     RDKit          3D

 34 35  0  0  0  0  0  0  0  0999 V2000
   -1.3241    1.9086   29.6902 C   0  0  0  0  0  0  0  0  0  0  0  0
   -0.6512    0.8669   30.6010 C   0  0  0  0  0  0  0  0  0  0  0  0
   -1.6745    0.3646   31.6390 C   0  0  0  0  0  0  0  0  0  0  0  0
    0.4942    1.4717   31.4107 C   0  0  0  0  0  0  0  0  0  0  0  0
    1.4271    0.8760   31.9281 O   0  0  0  0  0  0  0  0  0  0  0  0
    0.3892    2.8039   31.6155 O   0  0  0  0  0  0  0  0  0  0  0  0
   -0.1417   -0.2225   29.7518 N   0  0  0  0  0  0  0  0  0  0  0  0
    0.9916   -0.1958   28.9639 C   0  0  0  0  0  0  0  0  0  0  0  0
    1.0490   -1.3801   28.2683 C   0  0  0  0  0  0  0  0  0  0  0  0
    2.0122   -1.8470   27.3784 N   0  0  0  0  0  0  0  0  0  0  0  0
    3.2525   -1.2182   26.8746 C   0  0  0  0  0  0  0  0  0  0  0  0
    3.6969   -0.1140   27.0483 O   0  0  0  0  0  0  0  0  0  0  0  0
    4.0753   -2.2958   26.0845 C   0  0  0  0  0  0  0  0  0  0  0  0
    5.0395   -1.9137   24.9612 C   0  0  0  0  0  0  0  0  0  0  0  0
    5.7189   -0.7302   24.7222 C   0  0  0  0  0  0  0  0  0  0  0  0
    6.7300   -0.8644   23.3309 S   0  0  0  0  0  0  0  0  0  0  0  0
    6.2005   -2.4778   23.1275 C   0  0  0  0  0  0  0  0  0  0  0  0
    5.3786   -2.9316   24.0473 N   0  0  0  0  0  0  0  0  0  0  0  0
   -0.1472   -2.0403   28.6800 C   0  0  0  0  0  0  0  0  0  0  0  0
   -0.8803   -1.3373   29.5511 N   0  0  0  0  0  0  0  0  0  0  0  0
   -1.8013    2.7063   30.2709 H   0  0  0  0  0  0  0  0  0  0  0  0
   -0.5970    2.3824   29.0199 H   0  0  0  0  0  0  0  0  0  0  0  0
   -2.0975    1.4487   29.0644 H   0  0  0  0  0  0  0  0  0  0  0  0
   -1.9893    1.1746   32.3078 H   0  0  0  0  0  0  0  0  0  0  0  0
   -1.2488   -0.4274   32.2670 H   0  0  0  0  0  0  0  0  0  0  0  0
   -2.5754   -0.0356   31.1615 H   0  0  0  0  0  0  0  0  0  0  0  0
    1.1771    3.0173   32.1614 H   0  0  0  0  0  0  0  0  0  0  0  0
    1.6708    0.6459   28.9758 H   0  0  0  0  0  0  0  0  0  0  0  0
    1.9133   -2.7651   26.9638 H   0  0  0  0  0  0  0  0  0  0  0  0
    4.6700   -2.8205   26.8448 H   0  0  0  0  0  0  0  0  0  0  0  0
    3.3950   -3.0412   25.6637 H   0  0  0  0  0  0  0  0  0  0  0  0
    5.6576    0.1966   25.2752 H   0  0  0  0  0  0  0  0  0  0  0  0
    6.5316   -3.0946   22.3029 H   0  0  0  0  0  0  0  0  0  0  0  0
   -0.5149   -3.0074   28.3643 H   0  0  0  0  0  0  0  0  0  0  0  0
  1  2  1  0
  2  3  1  0
  2  4  1  0
  4  5  2  0
  4  6  1  0
  2  7  1  0
  7  8  1  0
  8  9  2  0
  9 10  1  0
 10 11  1  0
 11 12  2  0
 11 13  1  0
 13 14  1  0
 14 15  2  0
 15 16  1  0
 16 17  1  0
 17 18  2  0
  9 19  1  0
 19 20  2  0
 20  7  1  0
 18 14  1  0
  1 21  1  0
  1 22  1  0
  1 23  1  0
  3 24  1  0
  3 25  1  0
  3 26  1  0
  6 27  1  0
  8 28  1  0
 10 29  1  0
 13 30  1  0
 13 31  1  0
 15 32  1  0
 17 33  1  0
 19 34  1  0
M  END
>  <Energy>  (316) 
29.507641060667861

>  <compound_id>  (316) 
15161

>  <target_id>  (316) 
1

>  <reference_id>  (316) 
122

>  <inspiration_ids>  (316) 
[122, 7]

>  <energy_score>  (316) 
-82.87309487949676

>  <distance_score>  (316) 
14.318504117785661

>  <path>  (316) 
/opt/xchem-fragalysis-2/maxwin/BulkDock/SCRATCH/511023/C15161-P122/C15161-P122.minimised.mol

>  <scratch_subdir>  (316) 
/opt/xchem-fragalysis-2/maxwin/BulkDock/SCRATCH/511023/C15161-P122

>  <fragmenstein_runtime>  (316) 
12.297104597091675

>  <fragmenstein_outcome>  (316) 
too moved

>  <fragmenstein_mode>  (316) 
expansion

>  <fragmenstein_error>  (316) 


$$$$
C15161-P7
     RDKit          3D

 34 35  0  0  0  0  0  0  0  0999 V2000
   -1.2062    2.5428   30.8588 C   0  0  0  0  0  0  0  0  0  0  0  0
   -2.2698    1.4658   31.1591 C   0  0  0  0  0  0  0  0  0  0  0  0
   -2.0085    0.9713   32.6005 C   0  0  0  0  0  0  0  0  0  0  0  0
   -3.6544    2.1182   31.0546 C   0  0  0  0  0  0  0  0  0  0  0  0
   -4.0125    2.9037   30.1867 O   0  0  0  0  0  0  0  0  0  0  0  0
   -4.5320    1.7667   32.0204 O   0  0  0  0  0  0  0  0  0  0  0  0
   -2.1828    0.3747   30.1727 N   0  0  0  0  0  0  0  0  0  0  0  0
   -2.1620    0.4867   28.7959 C   0  0  0  0  0  0  0  0  0  0  0  0
   -2.2556   -0.7864   28.2846 C   0  0  0  0  0  0  0  0  0  0  0  0
   -2.3992   -1.1937   26.9732 N   0  0  0  0  0  0  0  0  0  0  0  0
   -2.2299   -0.3649   25.5594 C   0  0  0  0  0  0  0  0  0  0  0  0
   -2.0193    0.8326   25.4299 O   0  0  0  0  0  0  0  0  0  0  0  0
   -2.2526   -1.6690   23.7991 C   0  0  0  0  0  0  0  0  0  0  0  0
   -0.7731   -2.9065   23.2040 C   0  0  0  0  0  0  0  0  0  0  0  0
    0.3699   -2.7758   22.4185 C   0  0  0  0  0  0  0  0  0  0  0  0
    1.5939   -4.1473   22.1143 S   0  0  0  0  0  0  0  0  0  0  0  0
    0.5863   -5.3026   23.0164 C   0  0  0  0  0  0  0  0  0  0  0  0
   -0.5580   -4.7235   23.6000 N   0  0  0  0  0  0  0  0  0  0  0  0
   -2.0979   -1.6078   29.4316 C   0  0  0  0  0  0  0  0  0  0  0  0
   -2.0785   -0.9149   30.5760 N   0  0  0  0  0  0  0  0  0  0  0  0
   -0.1960    2.1172   30.8737 H   0  0  0  0  0  0  0  0  0  0  0  0
   -1.2455    3.3513   31.5986 H   0  0  0  0  0  0  0  0  0  0  0  0
   -1.3517    3.0082   29.8774 H   0  0  0  0  0  0  0  0  0  0  0  0
   -2.1027    1.7916   33.3221 H   0  0  0  0  0  0  0  0  0  0  0  0
   -1.0001    0.5527   32.7017 H   0  0  0  0  0  0  0  0  0  0  0  0
   -2.7194    0.1935   32.9040 H   0  0  0  0  0  0  0  0  0  0  0  0
   -5.3906    2.1941   31.7912 H   0  0  0  0  0  0  0  0  0  0  0  0
   -2.1869    1.4516   28.3073 H   0  0  0  0  0  0  0  0  0  0  0  0
   -2.6508   -2.1628   26.7652 H   0  0  0  0  0  0  0  0  0  0  0  0
   -3.0380   -2.4389   24.0437 H   0  0  0  0  0  0  0  0  0  0  0  0
   -2.6059   -1.3718   22.8025 H   0  0  0  0  0  0  0  0  0  0  0  0
    0.1375   -2.0762   21.7279 H   0  0  0  0  0  0  0  0  0  0  0  0
    0.8343   -6.3507   23.1203 H   0  0  0  0  0  0  0  0  0  0  0  0
   -2.0385   -2.6874   29.4743 H   0  0  0  0  0  0  0  0  0  0  0  0
  1  2  1  0
  2  3  1  0
  2  4  1  0
  4  5  2  0
  4  6  1  0
  2  7  1  0
  7  8  1  0
  8  9  2  0
  9 10  1  0
 10 11  1  0
 11 12  2  0
 11 13  1  0
 13 14  1  0
 14 15  2  0
 15 16  1  0
 16 17  1  0
 17 18  2  0
  9 19  1  0
 19 20  2  0
 20  7  1  0
 18 14  1  0
  1 21  1  0
  1 22  1  0
  1 23  1  0
  3 24  1  0
  3 25  1  0
  3 26  1  0
  6 27  1  0
  8 28  1  0
 10 29  1  0
 13 30  1  0
 13 31  1  0
 15 32  1  0
 17 33  1  0
 19 34  1  0
M  END
>  <Energy>  (317) 
326.95148116685198

>  <compound_id>  (317) 
15161

>  <target_id>  (317) 
1

>  <reference_id>  (317) 
7

>  <inspiration_ids>  (317) 
[122, 7]

>  <energy_score>  (317) 
214.5707452266862

>  <distance_score>  (317) 
13.6588676716018

>  <path>  (317) 
/opt/xchem-fragalysis-2/maxwin/BulkDock/SCRATCH/511023/C15161-P7/C15161-P7.minimised.mol

>  <scratch_subdir>  (317) 
/opt/xchem-fragalysis-2/maxwin/BulkDock/SCRATCH/511023/C15161-P7

>  <fragmenstein_runtime>  (317) 
8.933690071105957

>  <fragmenstein_outcome>  (317) 
too moved

>  <fragmenstein_mode>  (317) 
expansion

>  <fragmenstein_error>  (317) 


$$$$
C24281-P122
     RDKit          3D

 37 38  0  0  0  0  0  0  0  0999 V2000
   -0.4752   -2.4649   31.3105 C   0  0  0  0  0  0  0  0  0  0  0  0
    0.6222   -2.9211   30.3290 C   0  0  0  0  0  0  0  0  0  0  0  0
   -0.0110   -3.1903   28.9522 C   0  0  0  0  0  0  0  0  0  0  0  0
    1.2236   -4.1889   30.9323 C   0  0  0  0  0  0  0  0  0  0  0  0
    2.1215   -4.2585   31.7576 O   0  0  0  0  0  0  0  0  0  0  0  0
    0.6186   -5.3313   30.5355 O   0  0  0  0  0  0  0  0  0  0  0  0
    1.6741   -1.9050   30.1592 N   0  0  0  0  0  0  0  0  0  0  0  0
    2.9064   -2.0883   29.5634 C   0  0  0  0  0  0  0  0  0  0  0  0
    3.5334   -0.8650   29.4936 C   0  0  0  0  0  0  0  0  0  0  0  0
    4.7936   -0.5470   28.9860 N   0  0  0  0  0  0  0  0  0  0  0  0
    5.8373   -1.4015   28.3794 C   0  0  0  0  0  0  0  0  0  0  0  0
    5.8909   -2.5941   28.2451 O   0  0  0  0  0  0  0  0  0  0  0  0
    7.0478   -0.4970   27.9374 C   0  0  0  0  0  0  0  0  0  0  0  0
    8.1442   -0.9725   26.9597 C   0  0  0  0  0  0  0  0  0  0  0  0
    8.5714   -2.2858   26.7592 C   0  0  0  0  0  0  0  0  0  0  0  0
    9.6201   -2.5808   25.8666 C   0  0  0  0  0  0  0  0  0  0  0  0
   10.2517   -1.5449   25.2033 C   0  0  0  0  0  0  0  0  0  0  0  0
    9.9042   -0.2577   25.3840 N   0  0  0  0  0  0  0  0  0  0  0  0
    8.8915   -0.0112   26.2596 C   0  0  0  0  0  0  0  0  0  0  0  0
    2.5637    0.0104   30.0678 C   0  0  0  0  0  0  0  0  0  0  0  0
    1.4332   -0.6021   30.4422 N   0  0  0  0  0  0  0  0  0  0  0  0
   -1.0126   -1.5850   30.9386 H   0  0  0  0  0  0  0  0  0  0  0  0
   -1.2150   -3.2578   31.4731 H   0  0  0  0  0  0  0  0  0  0  0  0
   -0.0528   -2.2109   32.2903 H   0  0  0  0  0  0  0  0  0  0  0  0
   -0.8643   -3.8743   29.0247 H   0  0  0  0  0  0  0  0  0  0  0  0
   -0.3707   -2.2624   28.4920 H   0  0  0  0  0  0  0  0  0  0  0  0
    0.7116   -3.6433   28.2632 H   0  0  0  0  0  0  0  0  0  0  0  0
    1.0872   -6.0323   31.0399 H   0  0  0  0  0  0  0  0  0  0  0  0
    3.2350   -3.0674   29.2412 H   0  0  0  0  0  0  0  0  0  0  0  0
    5.1171    0.4118   29.0024 H   0  0  0  0  0  0  0  0  0  0  0  0
    6.6063    0.4034   27.4889 H   0  0  0  0  0  0  0  0  0  0  0  0
    7.5563   -0.1955   28.8623 H   0  0  0  0  0  0  0  0  0  0  0  0
    8.1136   -3.1114   27.2986 H   0  0  0  0  0  0  0  0  0  0  0  0
    9.9330   -3.6078   25.7080 H   0  0  0  0  0  0  0  0  0  0  0  0
   11.0657   -1.7237   24.5059 H   0  0  0  0  0  0  0  0  0  0  0  0
    8.6779    1.0493   26.3800 H   0  0  0  0  0  0  0  0  0  0  0  0
    2.6407    1.0796   30.2137 H   0  0  0  0  0  0  0  0  0  0  0  0
  1  2  1  0
  2  3  1  0
  2  4  1  0
  4  5  2  0
  4  6  1  0
  2  7  1  0
  7  8  1  0
  8  9  2  0
  9 10  1  0
 10 11  1  0
 11 12  2  0
 11 13  1  0
 13 14  1  0
 14 15  2  0
 15 16  1  0
 16 17  2  0
 17 18  1  0
 18 19  2  0
  9 20  1  0
 20 21  2  0
 21  7  1  0
 19 14  1  0
  1 22  1  0
  1 23  1  0
  1 24  1  0
  3 25  1  0
  3 26  1  0
  3 27  1  0
  6 28  1  0
  8 29  1  0
 10 30  1  0
 13 31  1  0
 13 32  1  0
 15 33  1  0
 16 34  1  0
 17 35  1  0
 19 36  1  0
 20 37  1  0
M  END
>  <Energy>  (318) 
40.904920403011815

>  <compound_id>  (318) 
24281

>  <target_id>  (318) 
1

>  <reference_id>  (318) 
122

>  <inspiration_ids>  (318) 
[122, 7]

>  <energy_score>  (318) 
-28.60693565609421

>  <distance_score>  (318) 
14.745037646926107

>  <path>  (318) 
/opt/xchem-fragalysis-2/maxwin/BulkDock/SCRATCH/511023/C24281-P122/C24281-P122.minimised.mol

>  <scratch_subdir>  (318) 
/opt/xchem-fragalysis-2/maxwin/BulkDock/SCRATCH/511023/C24281-P122

>  <fragmenstein_runtime>  (318) 
8.621508121490479

>  <fragmenstein_outcome>  (318) 
too moved

>  <fragmenstein_mode>  (318) 
expansion

>  <fragmenstein_error>  (318) 


$$$$
C24281-P7
     RDKit          3D

 37 38  0  0  0  0  0  0  0  0999 V2000
   -2.8278   -9.0974   27.6571 C   0  0  0  0  0  0  0  0  0  0  0  0
   -2.3656   -7.6297   27.6358 C   0  0  0  0  0  0  0  0  0  0  0  0
   -3.1088   -6.8551   28.7433 C   0  0  0  0  0  0  0  0  0  0  0  0
   -2.7268   -6.9267   26.3296 C   0  0  0  0  0  0  0  0  0  0  0  0
   -2.2911   -5.8510   25.9386 O   0  0  0  0  0  0  0  0  0  0  0  0
   -3.6670   -7.5554   25.5935 O   0  0  0  0  0  0  0  0  0  0  0  0
   -0.9049   -7.6027   27.8223 N   0  0  0  0  0  0  0  0  0  0  0  0
    0.0588   -7.9239   26.8841 C   0  0  0  0  0  0  0  0  0  0  0  0
    1.2721   -8.0061   27.5321 C   0  0  0  0  0  0  0  0  0  0  0  0
    2.5460   -8.2959   27.0322 N   0  0  0  0  0  0  0  0  0  0  0  0
    3.0172   -8.5193   25.6429 C   0  0  0  0  0  0  0  0  0  0  0  0
    2.4053   -8.5852   24.6111 O   0  0  0  0  0  0  0  0  0  0  0  0
    4.5846   -8.7179   25.6522 C   0  0  0  0  0  0  0  0  0  0  0  0
    5.4773   -8.3249   24.4532 C   0  0  0  0  0  0  0  0  0  0  0  0
    5.5064   -9.0617   23.2625 C   0  0  0  0  0  0  0  0  0  0  0  0
    6.4813   -8.8111   22.2816 C   0  0  0  0  0  0  0  0  0  0  0  0
    7.4200   -7.8213   22.5117 C   0  0  0  0  0  0  0  0  0  0  0  0
    7.4347   -7.0746   23.6302 N   0  0  0  0  0  0  0  0  0  0  0  0
    6.4627   -7.3308   24.5544 C   0  0  0  0  0  0  0  0  0  0  0  0
    0.9251   -7.6695   28.8760 C   0  0  0  0  0  0  0  0  0  0  0  0
   -0.3781   -7.4253   29.0546 N   0  0  0  0  0  0  0  0  0  0  0  0
   -2.5201   -9.5976   28.5830 H   0  0  0  0  0  0  0  0  0  0  0  0
   -2.4020   -9.6640   26.8204 H   0  0  0  0  0  0  0  0  0  0  0  0
   -3.9186   -9.1780   27.5854 H   0  0  0  0  0  0  0  0  0  0  0  0
   -2.9695   -7.3177   29.7271 H   0  0  0  0  0  0  0  0  0  0  0  0
   -2.7580   -5.8179   28.8092 H   0  0  0  0  0  0  0  0  0  0  0  0
   -4.1868   -6.8206   28.5449 H   0  0  0  0  0  0  0  0  0  0  0  0
   -3.8046   -6.9911   24.8028 H   0  0  0  0  0  0  0  0  0  0  0  0
   -0.1965   -8.1012   25.8480 H   0  0  0  0  0  0  0  0  0  0  0  0
    3.3296   -8.3825   27.6672 H   0  0  0  0  0  0  0  0  0  0  0  0
    4.9979   -8.2192   26.5362 H   0  0  0  0  0  0  0  0  0  0  0  0
    4.7444   -9.7908   25.8280 H   0  0  0  0  0  0  0  0  0  0  0  0
    4.7816   -9.8562   23.0994 H   0  0  0  0  0  0  0  0  0  0  0  0
    6.5012   -9.3891   21.3653 H   0  0  0  0  0  0  0  0  0  0  0  0
    8.1964   -7.5952   21.7892 H   0  0  0  0  0  0  0  0  0  0  0  0
    6.5356   -6.6994   25.4365 H   0  0  0  0  0  0  0  0  0  0  0  0
    1.5844   -7.5931   29.7309 H   0  0  0  0  0  0  0  0  0  0  0  0
  1  2  1  0
  2  3  1  0
  2  4  1  0
  4  5  2  0
  4  6  1  0
  2  7  1  0
  7  8  1  0
  8  9  2  0
  9 10  1  0
 10 11  1  0
 11 12  2  0
 11 13  1  0
 13 14  1  0
 14 15  2  0
 15 16  1  0
 16 17  2  0
 17 18  1  0
 18 19  2  0
  9 20  1  0
 20 21  2  0
 21  7  1  0
 19 14  1  0
  1 22  1  0
  1 23  1  0
  1 24  1  0
  3 25  1  0
  3 26  1  0
  3 27  1  0
  6 28  1  0
  8 29  1  0
 10 30  1  0
 13 31  1  0
 13 32  1  0
 15 33  1  0
 16 34  1  0
 17 35  1  0
 19 36  1  0
 20 37  1  0
M  END
>  <Energy>  (319) 
43.095943826736821

>  <compound_id>  (319) 
24281

>  <target_id>  (319) 
1

>  <reference_id>  (319) 
7

>  <inspiration_ids>  (319) 
[122, 7]

>  <energy_score>  (319) 
-26.415912232367646

>  <distance_score>  (319) 
15.155694508558899

>  <path>  (319) 
/opt/xchem-fragalysis-2/maxwin/BulkDock/SCRATCH/511023/C24281-P7/C24281-P7.minimised.mol

>  <scratch_subdir>  (319) 
/opt/xchem-fragalysis-2/maxwin/BulkDock/SCRATCH/511023/C24281-P7

>  <fragmenstein_runtime>  (319) 
13.383171558380127

>  <fragmenstein_outcome>  (319) 
too moved

>  <fragmenstein_mode>  (319) 
expansion

>  <fragmenstein_error>  (319) 


$$$$
C18749-P122
     RDKit          3D

 39 41  0  0  0  0  0  0  0  0999 V2000
   -4.6620   -1.7198   24.9836 C   0  0  0  0  0  0  0  0  0  0  0  0
   -5.0746   -0.2650   24.6923 C   0  0  0  0  0  0  0  0  0  0  0  0
   -3.8144    0.6016   24.1976 C   0  0  0  0  0  0  0  0  0  0  0  0
   -3.0037    0.4199   22.8710 C   0  0  0  0  0  0  0  0  0  0  0  0
   -2.2273    1.5022   22.3915 C   0  0  0  0  0  0  0  0  0  0  0  0
   -1.5367    1.4086   21.1752 C   0  0  0  0  0  0  0  0  0  0  0  0
   -1.5189    0.3001   20.4108 N   0  0  0  0  0  0  0  0  0  0  0  0
   -2.2675   -0.7299   20.8679 C   0  0  0  0  0  0  0  0  0  0  0  0
   -2.9910   -0.7232   22.0662 C   0  0  0  0  0  0  0  0  0  0  0  0
   -6.1529   -0.2670   23.5898 C   0  0  0  0  0  0  0  0  0  0  0  0
   -5.9646    0.0972   22.4367 O   0  0  0  0  0  0  0  0  0  0  0  0
   -7.3657   -0.7600   23.9508 O   0  0  0  0  0  0  0  0  0  0  0  0
   -5.7126    0.2295   25.9719 N   0  0  0  0  0  0  0  0  0  0  0  0
   -5.4051    1.3067   26.7640 C   0  0  0  0  0  0  0  0  0  0  0  0
   -6.3928    1.4067   27.7291 C   0  0  0  0  0  0  0  0  0  0  0  0
   -6.5371    2.5362   28.6231 C   0  0  0  0  0  0  0  0  0  0  0  0
   -7.6974    3.3086   28.5749 C   0  0  0  0  0  0  0  0  0  0  0  0
   -7.7515    4.4518   29.3509 C   0  0  0  0  0  0  0  0  0  0  0  0
   -6.7614    4.8457   30.1830 N   0  0  0  0  0  0  0  0  0  0  0  0
   -5.6487    4.0770   30.2079 C   0  0  0  0  0  0  0  0  0  0  0  0
   -5.4885    2.9274   29.4536 C   0  0  0  0  0  0  0  0  0  0  0  0
   -7.2356    0.3112   27.4817 C   0  0  0  0  0  0  0  0  0  0  0  0
   -6.8171   -0.4343   26.4512 N   0  0  0  0  0  0  0  0  0  0  0  0
   -4.1091   -2.1849   24.1692 H   0  0  0  0  0  0  0  0  0  0  0  0
   -5.5329   -2.3637   25.1555 H   0  0  0  0  0  0  0  0  0  0  0  0
   -4.0483   -1.7718   25.8887 H   0  0  0  0  0  0  0  0  0  0  0  0
   -3.0647    0.5679   25.0004 H   0  0  0  0  0  0  0  0  0  0  0  0
   -4.1733    1.6410   24.1585 H   0  0  0  0  0  0  0  0  0  0  0  0
   -2.1840    2.4368   22.9445 H   0  0  0  0  0  0  0  0  0  0  0  0
   -0.9608    2.2475   20.7950 H   0  0  0  0  0  0  0  0  0  0  0  0
   -2.2786   -1.6055   20.2234 H   0  0  0  0  0  0  0  0  0  0  0  0
   -3.5791   -1.6015   22.2931 H   0  0  0  0  0  0  0  0  0  0  0  0
   -7.4464   -0.9043   24.9304 H   0  0  0  0  0  0  0  0  0  0  0  0
   -4.5669    1.9531   26.5432 H   0  0  0  0  0  0  0  0  0  0  0  0
   -8.5269    3.0561   27.9228 H   0  0  0  0  0  0  0  0  0  0  0  0
   -8.6227    5.1004   29.3248 H   0  0  0  0  0  0  0  0  0  0  0  0
   -4.8616    4.4207   30.8732 H   0  0  0  0  0  0  0  0  0  0  0  0
   -4.5671    2.3590   29.5139 H   0  0  0  0  0  0  0  0  0  0  0  0
   -8.1532    0.0411   27.9876 H   0  0  0  0  0  0  0  0  0  0  0  0
  1  2  1  0
  2  3  1  0
  3  4  1  0
  4  5  2  0
  5  6  1  0
  6  7  2  0
  7  8  1  0
  8  9  2  0
  2 10  1  0
 10 11  2  0
 10 12  1  0
  2 13  1  0
 13 14  1  0
 14 15  2  0
 15 16  1  0
 16 17  2  0
 17 18  1  0
 18 19  2  0
 19 20  1  0
 20 21  2  0
 15 22  1  0
 22 23  2  0
  9  4  1  0
 23 13  1  0
 21 16  1  0
  1 24  1  0
  1 25  1  0
  1 26  1  0
  3 27  1  0
  3 28  1  0
  5 29  1  0
  6 30  1  0
  8 31  1  0
  9 32  1  0
 12 33  1  0
 14 34  1  0
 17 35  1  0
 18 36  1  0
 20 37  1  0
 21 38  1  0
 22 39  1  0
M  END
>  <Energy>  (320) 
48.027847918314599

>  <compound_id>  (320) 
18749

>  <target_id>  (320) 
1

>  <reference_id>  (320) 
122

>  <inspiration_ids>  (320) 
[122, 7]

>  <energy_score>  (320) 
-22.744085158294467

>  <distance_score>  (320) 
14.430005858432168

>  <path>  (320) 
/opt/xchem-fragalysis-2/maxwin/BulkDock/SCRATCH/511023/C18749-P122/C18749-P122.minimised.mol

>  <scratch_subdir>  (320) 
/opt/xchem-fragalysis-2/maxwin/BulkDock/SCRATCH/511023/C18749-P122

>  <fragmenstein_runtime>  (320) 
10.588441610336304

>  <fragmenstein_outcome>  (320) 
too moved

>  <fragmenstein_mode>  (320) 
expansion

>  <fragmenstein_error>  (320) 


$$$$
C18749-P7
     RDKit          3D

 39 41  0  0  0  0  0  0  0  0999 V2000
   -1.1353   -1.0943   28.3353 C   0  0  0  0  0  0  0  0  0  0  0  0
   -0.3561   -1.4470   29.6072 C   0  0  0  0  0  0  0  0  0  0  0  0
    0.9880   -0.5904   29.6329 C   0  0  0  0  0  0  0  0  0  0  0  0
    2.0994   -0.6190   28.5252 C   0  0  0  0  0  0  0  0  0  0  0  0
    2.2907   -1.5870   27.5291 C   0  0  0  0  0  0  0  0  0  0  0  0
    3.3537   -1.4667   26.6141 C   0  0  0  0  0  0  0  0  0  0  0  0
    4.2590   -0.4678   26.6351 N   0  0  0  0  0  0  0  0  0  0  0  0
    4.0866    0.4502   27.6017 C   0  0  0  0  0  0  0  0  0  0  0  0
    3.0553    0.4149   28.5390 C   0  0  0  0  0  0  0  0  0  0  0  0
    0.0661   -2.9172   29.6121 C   0  0  0  0  0  0  0  0  0  0  0  0
   -0.1277   -3.7556   28.7438 O   0  0  0  0  0  0  0  0  0  0  0  0
    0.7758   -3.2728   30.7103 O   0  0  0  0  0  0  0  0  0  0  0  0
   -1.3308   -1.2244   30.7411 N   0  0  0  0  0  0  0  0  0  0  0  0
   -1.7248   -0.0323   31.3307 C   0  0  0  0  0  0  0  0  0  0  0  0
   -2.8235   -0.2917   32.1392 C   0  0  0  0  0  0  0  0  0  0  0  0
   -3.5595    0.6749   32.9511 C   0  0  0  0  0  0  0  0  0  0  0  0
   -4.3495    0.2445   34.0206 C   0  0  0  0  0  0  0  0  0  0  0  0
   -5.0307    1.1907   34.7724 C   0  0  0  0  0  0  0  0  0  0  0  0
   -4.9841    2.5185   34.5366 N   0  0  0  0  0  0  0  0  0  0  0  0
   -4.2138    2.9123   33.4995 C   0  0  0  0  0  0  0  0  0  0  0  0
   -3.4948    2.0448   32.6899 C   0  0  0  0  0  0  0  0  0  0  0  0
   -3.0314   -1.6752   31.9666 C   0  0  0  0  0  0  0  0  0  0  0  0
   -2.1590   -2.2375   31.1271 N   0  0  0  0  0  0  0  0  0  0  0  0
   -0.5085   -1.2016   27.4537 H   0  0  0  0  0  0  0  0  0  0  0  0
   -1.4891   -0.0568   28.3548 H   0  0  0  0  0  0  0  0  0  0  0  0
   -2.0116   -1.7377   28.2042 H   0  0  0  0  0  0  0  0  0  0  0  0
    1.5081   -0.8066   30.5768 H   0  0  0  0  0  0  0  0  0  0  0  0
    0.6800    0.4629   29.7005 H   0  0  0  0  0  0  0  0  0  0  0  0
    1.6263   -2.4349   27.4116 H   0  0  0  0  0  0  0  0  0  0  0  0
    3.4896   -2.1962   25.8189 H   0  0  0  0  0  0  0  0  0  0  0  0
    4.8223    1.2489   27.6117 H   0  0  0  0  0  0  0  0  0  0  0  0
    3.0060    1.2032   29.2851 H   0  0  0  0  0  0  0  0  0  0  0  0
    0.8947   -4.2403   30.6028 H   0  0  0  0  0  0  0  0  0  0  0  0
   -1.1949    0.8830   31.1115 H   0  0  0  0  0  0  0  0  0  0  0  0
   -4.4351   -0.8031   34.2865 H   0  0  0  0  0  0  0  0  0  0  0  0
   -5.6489    0.8912   35.6139 H   0  0  0  0  0  0  0  0  0  0  0  0
   -4.1890    3.9838   33.3230 H   0  0  0  0  0  0  0  0  0  0  0  0
   -2.9118    2.4462   31.8694 H   0  0  0  0  0  0  0  0  0  0  0  0
   -3.7943   -2.3035   32.4073 H   0  0  0  0  0  0  0  0  0  0  0  0
  1  2  1  0
  2  3  1  0
  3  4  1  0
  4  5  2  0
  5  6  1  0
  6  7  2  0
  7  8  1  0
  8  9  2  0
  2 10  1  0
 10 11  2  0
 10 12  1  0
  2 13  1  0
 13 14  1  0
 14 15  2  0
 15 16  1  0
 16 17  2  0
 17 18  1  0
 18 19  2  0
 19 20  1  0
 20 21  2  0
 15 22  1  0
 22 23  2  0
  9  4  1  0
 23 13  1  0
 21 16  1  0
  1 24  1  0
  1 25  1  0
  1 26  1  0
  3 27  1  0
  3 28  1  0
  5 29  1  0
  6 30  1  0
  8 31  1  0
  9 32  1  0
 12 33  1  0
 14 34  1  0
 17 35  1  0
 18 36  1  0
 20 37  1  0
 21 38  1  0
 22 39  1  0
M  END
>  <Energy>  (321) 
46.227331551421095

>  <compound_id>  (321) 
18749

>  <target_id>  (321) 
1

>  <reference_id>  (321) 
7

>  <inspiration_ids>  (321) 
[122, 7]

>  <energy_score>  (321) 
-24.54460152518965

>  <distance_score>  (321) 
14.021471638039511

>  <path>  (321) 
/opt/xchem-fragalysis-2/maxwin/BulkDock/SCRATCH/511023/C18749-P7/C18749-P7.minimised.mol

>  <scratch_subdir>  (321) 
/opt/xchem-fragalysis-2/maxwin/BulkDock/SCRATCH/511023/C18749-P7

>  <fragmenstein_runtime>  (321) 
9.770446062088013

>  <fragmenstein_outcome>  (321) 
too moved

>  <fragmenstein_mode>  (321) 
expansion

>  <fragmenstein_error>  (321) 


$$$$
C46428-P122
     RDKit          3D

 25 25  0  0  0  0  0  0  0  0999 V2000
   -8.6581   -2.0776   29.8989 C   0  0  0  0  0  0  0  0  0  0  0  0
   -8.1259   -3.1375   29.2819 C   0  0  0  0  0  0  0  0  0  0  0  0
   -6.6947   -3.4291   29.2650 C   0  0  0  0  0  0  0  0  0  0  0  0
   -6.0368   -3.0030   28.1691 C   0  0  0  0  0  0  0  0  0  0  0  0
   -4.5144   -2.6553   27.6528 C   0  0  0  0  0  0  0  0  0  0  0  0
   -3.4648   -2.5062   26.1248 C   0  0  0  0  0  0  0  0  0  0  0  0
   -2.8216   -3.7056   24.7045 C   0  0  0  0  0  0  0  0  0  0  0  0
   -3.2473   -3.0068   23.7384 O   0  0  0  0  0  0  0  0  0  0  0  0
   -1.8673   -5.3447   24.4408 C   0  0  0  0  0  0  0  0  0  0  0  0
   -0.4977   -5.9620   24.5343 C   0  0  0  0  0  0  0  0  0  0  0  0
   -0.2522   -6.1661   25.9946 C   0  0  0  0  0  0  0  0  0  0  0  0
   -1.4274   -6.3295   26.5307 N   0  0  0  0  0  0  0  0  0  0  0  0
   -1.9111   -6.5539   25.3252 N   0  0  0  0  0  0  0  0  0  0  0  0
   -9.7239   -1.8859   29.8396 H   0  0  0  0  0  0  0  0  0  0  0  0
   -8.0392   -1.3801   30.4519 H   0  0  0  0  0  0  0  0  0  0  0  0
   -8.7666   -3.7783   28.6793 H   0  0  0  0  0  0  0  0  0  0  0  0
   -6.1563   -3.6264   30.1749 H   0  0  0  0  0  0  0  0  0  0  0  0
   -6.8244   -2.6811   27.4750 H   0  0  0  0  0  0  0  0  0  0  0  0
   -3.8525   -2.8609   28.4968 H   0  0  0  0  0  0  0  0  0  0  0  0
   -4.3216   -1.6260   27.7741 H   0  0  0  0  0  0  0  0  0  0  0  0
   -3.8380   -1.6540   25.5853 H   0  0  0  0  0  0  0  0  0  0  0  0
   -2.6044   -2.0791   26.6907 H   0  0  0  0  0  0  0  0  0  0  0  0
    0.2905   -5.8673   23.7848 H   0  0  0  0  0  0  0  0  0  0  0  0
    0.5889   -6.0947   26.6417 H   0  0  0  0  0  0  0  0  0  0  0  0
   -2.0216   -7.5092   24.9724 H   0  0  0  0  0  0  0  0  0  0  0  0
  1  2  2  0
  2  3  1  0
  3  4  2  3
  4  5  1  0
  5  6  1  0
  6  7  1  0
  7  8  2  0
  7  9  1  0
  9 10  2  0
 10 11  1  0
 11 12  2  0
 12 13  1  0
 13  9  1  0
  1 14  1  0
  1 15  1  0
  2 16  1  0
  3 17  1  0
  4 18  1  0
  5 19  1  0
  5 20  1  0
  6 21  1  0
  6 22  1  0
 10 23  1  0
 11 24  1  0
 13 25  1  0
M  END
>  <Energy>  (322) 
357.36810027826431

>  <compound_id>  (322) 
46428

>  <target_id>  (322) 
1

>  <reference_id>  (322) 
122

>  <inspiration_ids>  (322) 
[122, 7]

>  <energy_score>  (322) 
330.3725929384036

>  <distance_score>  (322) 
14.07925720093601

>  <path>  (322) 
/opt/xchem-fragalysis-2/maxwin/BulkDock/SCRATCH/511023/C46428-P122/C46428-P122.minimised.mol

>  <scratch_subdir>  (322) 
/opt/xchem-fragalysis-2/maxwin/BulkDock/SCRATCH/511023/C46428-P122

>  <fragmenstein_runtime>  (322) 
5.105710506439209

>  <fragmenstein_outcome>  (322) 
too moved

>  <fragmenstein_mode>  (322) 
expansion

>  <fragmenstein_error>  (322) 


$$$$
C46428-P7
     RDKit          3D

 25 25  0  0  0  0  0  0  0  0999 V2000
   -4.7617   -2.0017   33.4843 C   0  0  0  0  0  0  0  0  0  0  0  0
   -3.7666   -2.5212   32.7490 C   0  0  0  0  0  0  0  0  0  0  0  0
   -3.0077   -1.7586   31.7671 C   0  0  0  0  0  0  0  0  0  0  0  0
   -2.0510   -2.2362   30.9316 C   0  0  0  0  0  0  0  0  0  0  0  0
   -1.3376   -1.3881   29.8322 C   0  0  0  0  0  0  0  0  0  0  0  0
    0.0649   -1.8549   29.1512 C   0  0  0  0  0  0  0  0  0  0  0  0
    0.7519   -0.8148   28.1430 C   0  0  0  0  0  0  0  0  0  0  0  0
    0.1578    0.2475   27.9294 O   0  0  0  0  0  0  0  0  0  0  0  0
    2.0894   -1.0411   27.5435 C   0  0  0  0  0  0  0  0  0  0  0  0
    3.0518   -0.0973   27.1833 C   0  0  0  0  0  0  0  0  0  0  0  0
    4.1180   -0.8069   26.5965 C   0  0  0  0  0  0  0  0  0  0  0  0
    3.8794   -2.1155   26.5798 N   0  0  0  0  0  0  0  0  0  0  0  0
    2.6156   -2.2113   27.0575 N   0  0  0  0  0  0  0  0  0  0  0  0
   -5.0749   -0.9676   33.3791 H   0  0  0  0  0  0  0  0  0  0  0  0
   -5.2662   -2.6047   34.2295 H   0  0  0  0  0  0  0  0  0  0  0  0
   -3.4821   -3.5599   32.8973 H   0  0  0  0  0  0  0  0  0  0  0  0
   -3.2566   -0.6995   31.6963 H   0  0  0  0  0  0  0  0  0  0  0  0
   -1.7747   -3.2859   30.9638 H   0  0  0  0  0  0  0  0  0  0  0  0
   -1.1735   -0.3812   30.2371 H   0  0  0  0  0  0  0  0  0  0  0  0
   -2.0437   -1.2798   28.9993 H   0  0  0  0  0  0  0  0  0  0  0  0
   -0.1104   -2.7858   28.6012 H   0  0  0  0  0  0  0  0  0  0  0  0
    0.7837   -2.0491   29.9549 H   0  0  0  0  0  0  0  0  0  0  0  0
    2.9743    0.9707   27.3338 H   0  0  0  0  0  0  0  0  0  0  0  0
    5.0509   -0.4294   26.1993 H   0  0  0  0  0  0  0  0  0  0  0  0
    2.1370   -3.0973   26.9581 H   0  0  0  0  0  0  0  0  0  0  0  0
  1  2  2  0
  2  3  1  0
  3  4  2  3
  4  5  1  0
  5  6  1  0
  6  7  1  0
  7  8  2  0
  7  9  1  0
  9 10  2  0
 10 11  1  0
 11 12  2  0
 12 13  1  0
 13  9  1  0
  1 14  1  0
  1 15  1  0
  2 16  1  0
  3 17  1  0
  4 18  1  0
  5 19  1  0
  5 20  1  0
  6 21  1  0
  6 22  1  0
 10 23  1  0
 11 24  1  0
 13 25  1  0
M  END
>  <Energy>  (323) 
28.621836759731391

>  <compound_id>  (323) 
46428

>  <target_id>  (323) 
1

>  <reference_id>  (323) 
7

>  <inspiration_ids>  (323) 
[122, 7]

>  <energy_score>  (323) 
1.6263294198721496

>  <distance_score>  (323) 
13.32915120966432

>  <path>  (323) 
/opt/xchem-fragalysis-2/maxwin/BulkDock/SCRATCH/511023/C46428-P7/C46428-P7.minimised.mol

>  <scratch_subdir>  (323) 
/opt/xchem-fragalysis-2/maxwin/BulkDock/SCRATCH/511023/C46428-P7

>  <fragmenstein_runtime>  (323) 
5.5436670780181885

>  <fragmenstein_outcome>  (323) 
too moved

>  <fragmenstein_mode>  (323) 
expansion

>  <fragmenstein_error>  (323) 


$$$$
C46432-P122
     RDKit          3D

 29 29  0  0  0  0  0  0  0  0999 V2000
    4.9177   -0.2461   22.0099 C   0  0  0  0  0  0  0  0  0  0  0  0
    5.0864   -1.7327   22.7940 C   0  0  0  0  0  0  0  0  0  0  0  0
    5.8358   -2.1309   24.2822 C   0  0  0  0  0  0  0  0  0  0  0  0
    3.6327   -2.1536   23.9313 C   0  0  0  0  0  0  0  0  0  0  0  0
    3.3291   -1.1421   25.4160 C   0  0  0  0  0  0  0  0  0  0  0  0
    3.9190   -0.0540   25.4956 O   0  0  0  0  0  0  0  0  0  0  0  0
    2.4660   -1.4255   26.6684 C   0  0  0  0  0  0  0  0  0  0  0  0
    1.8973   -0.3906   27.5061 C   0  0  0  0  0  0  0  0  0  0  0  0
    1.0936   -0.8306   28.4838 N   0  0  0  0  0  0  0  0  0  0  0  0
    1.2001   -2.1582   28.3685 N   0  0  0  0  0  0  0  0  0  0  0  0
    2.0168   -2.5512   27.3375 C   0  0  0  0  0  0  0  0  0  0  0  0
    6.0251   -2.1995   21.1383 C   0  0  0  0  0  0  0  0  0  0  0  0
    7.0990   -0.8435   20.0939 C   0  0  0  0  0  0  0  0  0  0  0  0
    8.3526   -1.1633   19.8337 F   0  0  0  0  0  0  0  0  0  0  0  0
    6.7697   -0.5873   18.7724 F   0  0  0  0  0  0  0  0  0  0  0  0
    4.0580    0.1404   21.5442 H   0  0  0  0  0  0  0  0  0  0  0  0
    5.7038    0.0125   21.4093 H   0  0  0  0  0  0  0  0  0  0  0  0
    4.8108    0.6420   22.5323 H   0  0  0  0  0  0  0  0  0  0  0  0
    5.1738   -2.1901   25.1300 H   0  0  0  0  0  0  0  0  0  0  0  0
    6.4844   -1.5564   24.9182 H   0  0  0  0  0  0  0  0  0  0  0  0
    6.3824   -3.0707   24.1706 H   0  0  0  0  0  0  0  0  0  0  0  0
    2.7658   -2.3901   23.3440 H   0  0  0  0  0  0  0  0  0  0  0  0
    3.7797   -3.1157   24.4306 H   0  0  0  0  0  0  0  0  0  0  0  0
    2.0337    0.6770   27.3811 H   0  0  0  0  0  0  0  0  0  0  0  0
    0.7048   -2.7425   29.0328 H   0  0  0  0  0  0  0  0  0  0  0  0
    2.1548   -3.5980   27.1559 H   0  0  0  0  0  0  0  0  0  0  0  0
    5.3735   -2.8521   20.5328 H   0  0  0  0  0  0  0  0  0  0  0  0
    6.7499   -2.9992   21.2562 H   0  0  0  0  0  0  0  0  0  0  0  0
    7.1507    0.1935   20.3572 H   0  0  0  0  0  0  0  0  0  0  0  0
  1  2  1  0
  2  3  1  0
  2  4  1  0
  4  5  1  0
  5  6  2  0
  5  7  1  0
  7  8  1  0
  8  9  2  0
  9 10  1  0
 10 11  1  0
  2 12  1  0
 12 13  1  0
 13 14  1  0
 13 15  1  0
 11  7  2  0
  1 16  1  0
  1 17  1  0
  1 18  1  0
  3 19  1  0
  3 20  1  0
  3 21  1  0
  4 22  1  0
  4 23  1  0
  8 24  1  0
 10 25  1  0
 11 26  1  0
 12 27  1  0
 12 28  1  0
 13 29  1  0
M  END
>  <Energy>  (324) 
385.58805676521382

>  <compound_id>  (324) 
46432

>  <target_id>  (324) 
1

>  <reference_id>  (324) 
122

>  <inspiration_ids>  (324) 
[122, 7]

>  <energy_score>  (324) 
300.695629630841

>  <distance_score>  (324) 
13.647007197702743

>  <path>  (324) 
/opt/xchem-fragalysis-2/maxwin/BulkDock/SCRATCH/511023/C46432-P122/C46432-P122.minimised.mol

>  <scratch_subdir>  (324) 
/opt/xchem-fragalysis-2/maxwin/BulkDock/SCRATCH/511023/C46432-P122

>  <fragmenstein_runtime>  (324) 
8.174329042434692

>  <fragmenstein_outcome>  (324) 
too moved

>  <fragmenstein_mode>  (324) 
expansion

>  <fragmenstein_error>  (324) 


$$$$
C46432-P7
     RDKit          3D

 29 29  0  0  0  0  0  0  0  0999 V2000
    7.0458   -0.7310   20.4422 C   0  0  0  0  0  0  0  0  0  0  0  0
    5.6151   -1.2217   21.6490 C   0  0  0  0  0  0  0  0  0  0  0  0
    5.7790   -2.6112   21.0610 C   0  0  0  0  0  0  0  0  0  0  0  0
    4.9032   -1.5764   23.5263 C   0  0  0  0  0  0  0  0  0  0  0  0
    4.3922   -0.6653   25.0445 C   0  0  0  0  0  0  0  0  0  0  0  0
    5.0374    0.3003   25.4454 O   0  0  0  0  0  0  0  0  0  0  0  0
    3.3514   -1.0054   26.1051 C   0  0  0  0  0  0  0  0  0  0  0  0
    2.7319   -2.1710   26.5722 C   0  0  0  0  0  0  0  0  0  0  0  0
    1.9383   -2.0338   27.6508 N   0  0  0  0  0  0  0  0  0  0  0  0
    2.0372   -0.7297   27.9165 N   0  0  0  0  0  0  0  0  0  0  0  0
    2.8673   -0.0820   27.0482 C   0  0  0  0  0  0  0  0  0  0  0  0
    5.4914    0.5607   21.4197 C   0  0  0  0  0  0  0  0  0  0  0  0
    6.7256    1.7860   20.8300 C   0  0  0  0  0  0  0  0  0  0  0  0
    6.8964    1.8904   19.4863 F   0  0  0  0  0  0  0  0  0  0  0  0
    7.9414    1.6352   21.3460 F   0  0  0  0  0  0  0  0  0  0  0  0
    7.1203   -1.0945   19.4412 H   0  0  0  0  0  0  0  0  0  0  0  0
    6.6992    0.1029   19.8905 H   0  0  0  0  0  0  0  0  0  0  0  0
    8.0142   -0.3679   20.6278 H   0  0  0  0  0  0  0  0  0  0  0  0
    5.2816   -3.0627   21.8266 H   0  0  0  0  0  0  0  0  0  0  0  0
    5.3342   -3.0549   20.1776 H   0  0  0  0  0  0  0  0  0  0  0  0
    6.7894   -2.9640   21.1478 H   0  0  0  0  0  0  0  0  0  0  0  0
    5.6174   -2.2059   24.0540 H   0  0  0  0  0  0  0  0  0  0  0  0
    4.0097   -2.2024   23.4268 H   0  0  0  0  0  0  0  0  0  0  0  0
    2.8103   -3.1293   26.1064 H   0  0  0  0  0  0  0  0  0  0  0  0
    1.5439   -0.3553   28.7193 H   0  0  0  0  0  0  0  0  0  0  0  0
    3.0856    0.9698   27.1641 H   0  0  0  0  0  0  0  0  0  0  0  0
    4.4304    0.7086   21.3533 H   0  0  0  0  0  0  0  0  0  0  0  0
    5.3559    0.9557   22.3906 H   0  0  0  0  0  0  0  0  0  0  0  0
    6.6006    2.8223   21.1584 H   0  0  0  0  0  0  0  0  0  0  0  0
  1  2  1  0
  2  3  1  0
  2  4  1  0
  4  5  1  0
  5  6  2  0
  5  7  1  0
  7  8  1  0
  8  9  2  0
  9 10  1  0
 10 11  1  0
  2 12  1  0
 12 13  1  0
 13 14  1  0
 13 15  1  0
 11  7  2  0
  1 16  1  0
  1 17  1  0
  1 18  1  0
  3 19  1  0
  3 20  1  0
  3 21  1  0
  4 22  1  0
  4 23  1  0
  8 24  1  0
 10 25  1  0
 11 26  1  0
 12 27  1  0
 12 28  1  0
 13 29  1  0
M  END
>  <Energy>  (325) 
424.26730023625794

>  <compound_id>  (325) 
46432

>  <target_id>  (325) 
1

>  <reference_id>  (325) 
7

>  <inspiration_ids>  (325) 
[122, 7]

>  <energy_score>  (325) 
339.37487310189135

>  <distance_score>  (325) 
14.438591662641343

>  <path>  (325) 
/opt/xchem-fragalysis-2/maxwin/BulkDock/SCRATCH/511023/C46432-P7/C46432-P7.minimised.mol

>  <scratch_subdir>  (325) 
/opt/xchem-fragalysis-2/maxwin/BulkDock/SCRATCH/511023/C46432-P7

>  <fragmenstein_runtime>  (325) 
7.353936195373535

>  <fragmenstein_outcome>  (325) 
too moved

>  <fragmenstein_mode>  (325) 
expansion

>  <fragmenstein_error>  (325) 


$$$$
C46434-P122
     RDKit          3D

 29 29  0  0  0  0  0  0  0  0999 V2000
    3.7936    0.5211   26.7626 C   0  0  0  0  0  0  0  0  0  0  0  0
    3.0317   -0.5478   27.5743 C   0  0  0  0  0  0  0  0  0  0  0  0
    3.1588   -1.8580   26.7997 C   0  0  0  0  0  0  0  0  0  0  0  0
    1.5630   -0.0652   27.9850 C   0  0  0  0  0  0  0  0  0  0  0  0
    0.6210   -1.0043   28.8315 C   0  0  0  0  0  0  0  0  0  0  0  0
   -0.6961   -0.3121   29.4027 C   0  0  0  0  0  0  0  0  0  0  0  0
   -1.7735   -1.2661   30.0312 C   0  0  0  0  0  0  0  0  0  0  0  0
   -1.6966   -2.4771   29.7999 O   0  0  0  0  0  0  0  0  0  0  0  0
   -2.9207   -0.7802   30.8304 C   0  0  0  0  0  0  0  0  0  0  0  0
   -3.8210   -1.5888   31.5853 C   0  0  0  0  0  0  0  0  0  0  0  0
   -4.7980   -0.8955   32.1755 N   0  0  0  0  0  0  0  0  0  0  0  0
   -4.5618    0.3660   31.7861 N   0  0  0  0  0  0  0  0  0  0  0  0
   -3.4315    0.4908   31.0131 C   0  0  0  0  0  0  0  0  0  0  0  0
    4.8220    0.2039   26.5620 H   0  0  0  0  0  0  0  0  0  0  0  0
    3.2936    0.7132   25.8113 H   0  0  0  0  0  0  0  0  0  0  0  0
    3.8347    1.4631   27.3189 H   0  0  0  0  0  0  0  0  0  0  0  0
    3.5654   -0.6843   28.5246 H   0  0  0  0  0  0  0  0  0  0  0  0
    3.0052   -1.7078   25.7310 H   0  0  0  0  0  0  0  0  0  0  0  0
    2.4585   -2.6086   27.1741 H   0  0  0  0  0  0  0  0  0  0  0  0
    4.1689   -2.2576   26.9240 H   0  0  0  0  0  0  0  0  0  0  0  0
    1.6914    0.8600   28.5630 H   0  0  0  0  0  0  0  0  0  0  0  0
    1.0155    0.2237   27.0856 H   0  0  0  0  0  0  0  0  0  0  0  0
    0.3301   -1.8567   28.2073 H   0  0  0  0  0  0  0  0  0  0  0  0
    1.1875   -1.4082   29.6787 H   0  0  0  0  0  0  0  0  0  0  0  0
   -0.3997    0.4140   30.1676 H   0  0  0  0  0  0  0  0  0  0  0  0
   -1.1891    0.2268   28.5855 H   0  0  0  0  0  0  0  0  0  0  0  0
   -3.7890   -2.6643   31.7151 H   0  0  0  0  0  0  0  0  0  0  0  0
   -5.2145    1.0906   32.0755 H   0  0  0  0  0  0  0  0  0  0  0  0
   -3.1258    1.4587   30.6425 H   0  0  0  0  0  0  0  0  0  0  0  0
  1  2  1  0
  2  3  1  0
  2  4  1  0
  4  5  1  0
  5  6  1  0
  6  7  1  0
  7  8  2  0
  7  9  1  0
  9 10  1  0
 10 11  2  0
 11 12  1  0
 12 13  1  0
 13  9  2  0
  1 14  1  0
  1 15  1  0
  1 16  1  0
  2 17  1  0
  3 18  1  0
  3 19  1  0
  3 20  1  0
  4 21  1  0
  4 22  1  0
  5 23  1  0
  5 24  1  0
  6 25  1  0
  6 26  1  0
 10 27  1  0
 12 28  1  0
 13 29  1  0
M  END
>  <Energy>  (326) 
34.078006614909185

>  <compound_id>  (326) 
46434

>  <target_id>  (326) 
1

>  <reference_id>  (326) 
122

>  <inspiration_ids>  (326) 
[122, 7]

>  <energy_score>  (326) 
-16.53453913228445

>  <distance_score>  (326) 
12.617183046331062

>  <path>  (326) 
/opt/xchem-fragalysis-2/maxwin/BulkDock/SCRATCH/511023/C46434-P122/C46434-P122.minimised.mol

>  <scratch_subdir>  (326) 
/opt/xchem-fragalysis-2/maxwin/BulkDock/SCRATCH/511023/C46434-P122

>  <fragmenstein_runtime>  (326) 
6.5471062660217285

>  <fragmenstein_outcome>  (326) 
too moved

>  <fragmenstein_mode>  (326) 
expansion

>  <fragmenstein_error>  (326) 


$$$$
C46434-P7
     RDKit          3D

 29 29  0  0  0  0  0  0  0  0999 V2000
   10.0065    0.9190   22.7706 C   0  0  0  0  0  0  0  0  0  0  0  0
    8.7542    1.7656   22.3938 C   0  0  0  0  0  0  0  0  0  0  0  0
    9.1876    3.2336   23.0005 C   0  0  0  0  0  0  0  0  0  0  0  0
    6.8520    1.4975   21.6242 C   0  0  0  0  0  0  0  0  0  0  0  0
    4.9962    0.8448   22.3949 C   0  0  0  0  0  0  0  0  0  0  0  0
    3.4791    2.0000   22.8894 C   0  0  0  0  0  0  0  0  0  0  0  0
    2.8710    1.9958   24.5442 C   0  0  0  0  0  0  0  0  0  0  0  0
    3.6040    1.6022   25.4604 O   0  0  0  0  0  0  0  0  0  0  0  0
    1.5175    2.5025   25.0189 C   0  0  0  0  0  0  0  0  0  0  0  0
    0.3829    3.0827   24.3984 C   0  0  0  0  0  0  0  0  0  0  0  0
   -0.6995    3.1411   25.1949 N   0  0  0  0  0  0  0  0  0  0  0  0
   -0.2305    2.7668   26.3965 N   0  0  0  0  0  0  0  0  0  0  0  0
    1.0707    2.3687   26.3414 C   0  0  0  0  0  0  0  0  0  0  0  0
   10.3907    1.2329   23.7543 H   0  0  0  0  0  0  0  0  0  0  0  0
    9.8263   -0.1321   22.8970 H   0  0  0  0  0  0  0  0  0  0  0  0
   10.8633    1.1055   22.1271 H   0  0  0  0  0  0  0  0  0  0  0  0
    8.9237    2.1681   21.5239 H   0  0  0  0  0  0  0  0  0  0  0  0
   10.1646    3.5418   22.6071 H   0  0  0  0  0  0  0  0  0  0  0  0
    8.4645    4.0146   22.7348 H   0  0  0  0  0  0  0  0  0  0  0  0
    9.3113    3.2066   24.0881 H   0  0  0  0  0  0  0  0  0  0  0  0
    7.2619    0.8908   20.7675 H   0  0  0  0  0  0  0  0  0  0  0  0
    6.7965    2.5644   21.2691 H   0  0  0  0  0  0  0  0  0  0  0  0
    4.6443    0.2105   21.6368 H   0  0  0  0  0  0  0  0  0  0  0  0
    4.8839    0.3693   23.4153 H   0  0  0  0  0  0  0  0  0  0  0  0
    2.6874    1.7813   22.1711 H   0  0  0  0  0  0  0  0  0  0  0  0
    3.6716    3.0725   22.7210 H   0  0  0  0  0  0  0  0  0  0  0  0
    0.2795    3.3957   23.3657 H   0  0  0  0  0  0  0  0  0  0  0  0
   -0.8517    2.7956   27.1997 H   0  0  0  0  0  0  0  0  0  0  0  0
    1.5788    1.9792   27.2143 H   0  0  0  0  0  0  0  0  0  0  0  0
  1  2  1  0
  2  3  1  0
  2  4  1  0
  4  5  1  0
  5  6  1  0
  6  7  1  0
  7  8  2  0
  7  9  1  0
  9 10  1  0
 10 11  2  0
 11 12  1  0
 12 13  1  0
 13  9  2  0
  1 14  1  0
  1 15  1  0
  1 16  1  0
  2 17  1  0
  3 18  1  0
  3 19  1  0
  3 20  1  0
  4 21  1  0
  4 22  1  0
  5 23  1  0
  5 24  1  0
  6 25  1  0
  6 26  1  0
 10 27  1  0
 12 28  1  0
 13 29  1  0
M  END
>  <Energy>  (327) 
326.20226165892842

>  <compound_id>  (327) 
46434

>  <target_id>  (327) 
1

>  <reference_id>  (327) 
7

>  <inspiration_ids>  (327) 
[122, 7]

>  <energy_score>  (327) 
275.5897159117335

>  <distance_score>  (327) 
14.35453717809001

>  <path>  (327) 
/opt/xchem-fragalysis-2/maxwin/BulkDock/SCRATCH/511023/C46434-P7/C46434-P7.minimised.mol

>  <scratch_subdir>  (327) 
/opt/xchem-fragalysis-2/maxwin/BulkDock/SCRATCH/511023/C46434-P7

>  <fragmenstein_runtime>  (327) 
5.335284948348999

>  <fragmenstein_outcome>  (327) 
too moved

>  <fragmenstein_mode>  (327) 
expansion

>  <fragmenstein_error>  (327) 


$$$$
C46439-P122
     RDKit          3D

 32 32  0  0  0  0  0  0  0  0999 V2000
    2.7508   -2.1489   15.7528 C   0  0  0  0  0  0  0  0  0  0  0  0
    2.3890   -2.2662   17.2413 C   0  0  0  0  0  0  0  0  0  0  0  0
    0.9933   -1.6462   17.8194 C   0  0  0  0  0  0  0  0  0  0  0  0
   -0.1790   -2.4547   17.2224 C   0  0  0  0  0  0  0  0  0  0  0  0
    0.9980   -0.2410   17.0959 C   0  0  0  0  0  0  0  0  0  0  0  0
    0.7520   -1.1851   19.6669 C   0  0  0  0  0  0  0  0  0  0  0  0
   -0.1313   -2.1310   21.4834 C   0  0  0  0  0  0  0  0  0  0  0  0
   -1.9505   -2.1084   22.3223 C   0  0  0  0  0  0  0  0  0  0  0  0
   -1.7751   -1.4733   23.3153 O   0  0  0  0  0  0  0  0  0  0  0  0
   -3.6172   -2.4688   22.4690 C   0  0  0  0  0  0  0  0  0  0  0  0
   -4.1609   -2.9479   23.7497 C   0  0  0  0  0  0  0  0  0  0  0  0
   -5.4816   -3.0953   23.7712 N   0  0  0  0  0  0  0  0  0  0  0  0
   -5.8470   -2.7703   22.5280 N   0  0  0  0  0  0  0  0  0  0  0  0
   -4.7884   -2.3799   21.7253 C   0  0  0  0  0  0  0  0  0  0  0  0
    1.9374   -2.5015   15.1133 H   0  0  0  0  0  0  0  0  0  0  0  0
    3.6315   -2.7628   15.5371 H   0  0  0  0  0  0  0  0  0  0  0  0
    3.0021   -1.1216   15.4745 H   0  0  0  0  0  0  0  0  0  0  0  0
    3.2252   -1.7982   17.7604 H   0  0  0  0  0  0  0  0  0  0  0  0
    2.3821   -3.3495   17.4155 H   0  0  0  0  0  0  0  0  0  0  0  0
   -1.1440   -1.9877   17.4396 H   0  0  0  0  0  0  0  0  0  0  0  0
   -0.1086   -2.5176   16.1314 H   0  0  0  0  0  0  0  0  0  0  0  0
   -0.1828   -3.4826   17.5987 H   0  0  0  0  0  0  0  0  0  0  0  0
    1.8443    0.3690   17.4166 H   0  0  0  0  0  0  0  0  0  0  0  0
    1.0198   -0.3317   16.0056 H   0  0  0  0  0  0  0  0  0  0  0  0
    0.0864    0.3288   17.2995 H   0  0  0  0  0  0  0  0  0  0  0  0
    0.1560   -0.4980   19.1565 H   0  0  0  0  0  0  0  0  0  0  0  0
    1.7689   -1.0018   19.6015 H   0  0  0  0  0  0  0  0  0  0  0  0
    0.3568   -3.1551   21.4027 H   0  0  0  0  0  0  0  0  0  0  0  0
    0.4172   -2.0821   22.4362 H   0  0  0  0  0  0  0  0  0  0  0  0
   -3.6171   -3.1763   24.6555 H   0  0  0  0  0  0  0  0  0  0  0  0
   -6.8338   -2.8161   22.2848 H   0  0  0  0  0  0  0  0  0  0  0  0
   -5.0197   -2.0721   20.7139 H   0  0  0  0  0  0  0  0  0  0  0  0
  1  2  1  0
  2  3  1  0
  3  4  1  0
  3  5  1  0
  3  6  1  0
  6  7  1  0
  7  8  1  0
  8  9  2  0
  8 10  1  0
 10 11  1  0
 11 12  2  0
 12 13  1  0
 13 14  1  0
 14 10  2  0
  1 15  1  0
  1 16  1  0
  1 17  1  0
  2 18  1  0
  2 19  1  0
  4 20  1  0
  4 21  1  0
  4 22  1  0
  5 23  1  0
  5 24  1  0
  5 25  1  0
  6 26  1  0
  6 27  1  0
  7 28  1  0
  7 29  1  0
 11 30  1  0
 13 31  1  0
 14 32  1  0
M  END
>  <Energy>  (328) 
435.94395311044769

>  <compound_id>  (328) 
46439

>  <target_id>  (328) 
1

>  <reference_id>  (328) 
122

>  <inspiration_ids>  (328) 
[122, 7]

>  <energy_score>  (328) 
357.87576269581064

>  <distance_score>  (328) 
14.074180272397264

>  <path>  (328) 
/opt/xchem-fragalysis-2/maxwin/BulkDock/SCRATCH/511023/C46439-P122/C46439-P122.minimised.mol

>  <scratch_subdir>  (328) 
/opt/xchem-fragalysis-2/maxwin/BulkDock/SCRATCH/511023/C46439-P122

>  <fragmenstein_runtime>  (328) 
6.386638164520264

>  <fragmenstein_outcome>  (328) 
too moved

>  <fragmenstein_mode>  (328) 
expansion

>  <fragmenstein_error>  (328) 


$$$$
C46439-P7
     RDKit          3D

 32 32  0  0  0  0  0  0  0  0999 V2000
    4.4568   -1.0423   25.3803 C   0  0  0  0  0  0  0  0  0  0  0  0
    3.4743   -1.3459   26.5051 C   0  0  0  0  0  0  0  0  0  0  0  0
    3.5179   -0.3691   27.7136 C   0  0  0  0  0  0  0  0  0  0  0  0
    3.1357    1.0643   27.3096 C   0  0  0  0  0  0  0  0  0  0  0  0
    4.9897   -0.3517   28.2197 C   0  0  0  0  0  0  0  0  0  0  0  0
    2.5402   -0.8246   28.9313 C   0  0  0  0  0  0  0  0  0  0  0  0
    0.9661   -0.5793   28.9123 C   0  0  0  0  0  0  0  0  0  0  0  0
    0.2407   -0.8008   30.3087 C   0  0  0  0  0  0  0  0  0  0  0  0
    0.9322   -1.0523   31.2995 O   0  0  0  0  0  0  0  0  0  0  0  0
   -1.2322   -0.7259   30.4680 C   0  0  0  0  0  0  0  0  0  0  0  0
   -2.2719   -0.4649   29.5472 C   0  0  0  0  0  0  0  0  0  0  0  0
   -3.4951   -0.5232   30.0900 N   0  0  0  0  0  0  0  0  0  0  0  0
   -3.2565   -0.7828   31.3859 N   0  0  0  0  0  0  0  0  0  0  0  0
   -1.9268   -0.9239   31.6573 C   0  0  0  0  0  0  0  0  0  0  0  0
    4.3481   -1.7694   24.5728 H   0  0  0  0  0  0  0  0  0  0  0  0
    4.2894   -0.0377   25.0029 H   0  0  0  0  0  0  0  0  0  0  0  0
    5.4833   -1.0759   25.7349 H   0  0  0  0  0  0  0  0  0  0  0  0
    3.6545   -2.3666   26.8627 H   0  0  0  0  0  0  0  0  0  0  0  0
    2.4627   -1.3392   26.1123 H   0  0  0  0  0  0  0  0  0  0  0  0
    3.8485    1.4948   26.6011 H   0  0  0  0  0  0  0  0  0  0  0  0
    2.1461    1.1005   26.8464 H   0  0  0  0  0  0  0  0  0  0  0  0
    3.1182    1.7236   28.1851 H   0  0  0  0  0  0  0  0  0  0  0  0
    5.3486   -1.3667   28.4222 H   0  0  0  0  0  0  0  0  0  0  0  0
    5.6717    0.1287   27.5112 H   0  0  0  0  0  0  0  0  0  0  0  0
    5.0662    0.2158   29.1546 H   0  0  0  0  0  0  0  0  0  0  0  0
    2.7087   -1.8936   29.1177 H   0  0  0  0  0  0  0  0  0  0  0  0
    2.9105   -0.3109   29.8294 H   0  0  0  0  0  0  0  0  0  0  0  0
    0.7615    0.4554   28.6207 H   0  0  0  0  0  0  0  0  0  0  0  0
    0.5123   -1.2535   28.1789 H   0  0  0  0  0  0  0  0  0  0  0  0
   -2.1886   -0.2423   28.4912 H   0  0  0  0  0  0  0  0  0  0  0  0
   -4.0447   -0.8510   32.0230 H   0  0  0  0  0  0  0  0  0  0  0  0
   -1.5754   -1.1489   32.6553 H   0  0  0  0  0  0  0  0  0  0  0  0
  1  2  1  0
  2  3  1  0
  3  4  1  0
  3  5  1  0
  3  6  1  0
  6  7  1  0
  7  8  1  0
  8  9  2  0
  8 10  1  0
 10 11  1  0
 11 12  2  0
 12 13  1  0
 13 14  1  0
 14 10  2  0
  1 15  1  0
  1 16  1  0
  1 17  1  0
  2 18  1  0
  2 19  1  0
  4 20  1  0
  4 21  1  0
  4 22  1  0
  5 23  1  0
  5 24  1  0
  5 25  1  0
  6 26  1  0
  6 27  1  0
  7 28  1  0
  7 29  1  0
 11 30  1  0
 13 31  1  0
 14 32  1  0
M  END
>  <Energy>  (329) 
44.789178014446613

>  <compound_id>  (329) 
46439

>  <target_id>  (329) 
1

>  <reference_id>  (329) 
7

>  <inspiration_ids>  (329) 
[122, 7]

>  <energy_score>  (329) 
-33.279012400190595

>  <distance_score>  (329) 
12.855841732843194

>  <path>  (329) 
/opt/xchem-fragalysis-2/maxwin/BulkDock/SCRATCH/511023/C46439-P7/C46439-P7.minimised.mol

>  <scratch_subdir>  (329) 
/opt/xchem-fragalysis-2/maxwin/BulkDock/SCRATCH/511023/C46439-P7

>  <fragmenstein_runtime>  (329) 
6.826157093048096

>  <fragmenstein_outcome>  (329) 
too moved

>  <fragmenstein_mode>  (329) 
expansion

>  <fragmenstein_error>  (329) 


$$$$
C46440-P122
     RDKit          3D

 32 32  0  0  0  0  0  0  0  0999 V2000
   -5.8232   -6.7076   29.8786 C   0  0  0  0  0  0  0  0  0  0  0  0
   -4.9323   -7.3428   30.9512 C   0  0  0  0  0  0  0  0  0  0  0  0
   -4.7199   -6.3820   32.1325 C   0  0  0  0  0  0  0  0  0  0  0  0
   -5.6423   -8.6094   31.4723 C   0  0  0  0  0  0  0  0  0  0  0  0
   -3.5984   -7.8064   30.2909 C   0  0  0  0  0  0  0  0  0  0  0  0
   -2.5963   -6.7500   29.7625 C   0  0  0  0  0  0  0  0  0  0  0  0
   -1.8874   -7.1353   28.3722 C   0  0  0  0  0  0  0  0  0  0  0  0
   -0.8037   -6.1043   27.8794 C   0  0  0  0  0  0  0  0  0  0  0  0
   -0.5577   -5.1987   28.6920 O   0  0  0  0  0  0  0  0  0  0  0  0
    0.0135   -6.1032   26.5252 C   0  0  0  0  0  0  0  0  0  0  0  0
   -0.2560   -6.5322   25.0988 C   0  0  0  0  0  0  0  0  0  0  0  0
    0.8090   -6.1420   24.1786 C   0  0  0  0  0  0  0  0  0  0  0  0
    2.2139   -5.5038   25.2429 N   0  0  0  0  0  0  0  0  0  0  0  0
    1.1474   -5.3221   26.6085 N   0  0  0  0  0  0  0  0  0  0  0  0
   -5.5854   -5.6515   29.7237 H   0  0  0  0  0  0  0  0  0  0  0  0
   -5.7311   -7.2236   28.9162 H   0  0  0  0  0  0  0  0  0  0  0  0
   -6.8720   -6.7819   30.1628 H   0  0  0  0  0  0  0  0  0  0  0  0
   -5.6483   -6.2242   32.6858 H   0  0  0  0  0  0  0  0  0  0  0  0
   -3.9879   -6.7942   32.8361 H   0  0  0  0  0  0  0  0  0  0  0  0
   -4.3468   -5.4085   31.7986 H   0  0  0  0  0  0  0  0  0  0  0  0
   -5.7972   -9.3390   30.6693 H   0  0  0  0  0  0  0  0  0  0  0  0
   -5.0593   -9.0966   32.2618 H   0  0  0  0  0  0  0  0  0  0  0  0
   -6.6253   -8.3629   31.8840 H   0  0  0  0  0  0  0  0  0  0  0  0
   -3.8443   -8.4835   29.4610 H   0  0  0  0  0  0  0  0  0  0  0  0
   -3.0514   -8.4295   31.0125 H   0  0  0  0  0  0  0  0  0  0  0  0
   -3.0469   -5.7584   29.7067 H   0  0  0  0  0  0  0  0  0  0  0  0
   -1.7993   -6.6454   30.5114 H   0  0  0  0  0  0  0  0  0  0  0  0
   -2.6337   -7.2711   27.5874 H   0  0  0  0  0  0  0  0  0  0  0  0
   -1.3669   -8.0906   28.5076 H   0  0  0  0  0  0  0  0  0  0  0  0
   -1.1693   -6.9821   24.7664 H   0  0  0  0  0  0  0  0  0  0  0  0
    0.9444   -5.8494   23.1520 H   0  0  0  0  0  0  0  0  0  0  0  0
    2.5398   -4.5175   25.1216 H   0  0  0  0  0  0  0  0  0  0  0  0
  1  2  1  0
  2  3  1  0
  2  4  1  0
  2  5  1  0
  5  6  1  0
  6  7  1  0
  7  8  1  0
  8  9  2  0
  8 10  1  0
 10 11  1  0
 11 12  2  0
 12 13  1  0
 13 14  1  0
 14 10  2  0
  1 15  1  0
  1 16  1  0
  1 17  1  0
  3 18  1  0
  3 19  1  0
  3 20  1  0
  4 21  1  0
  4 22  1  0
  4 23  1  0
  5 24  1  0
  5 25  1  0
  6 26  1  0
  6 27  1  0
  7 28  1  0
  7 29  1  0
 11 30  1  0
 12 31  1  0
 13 32  1  0
M  END
>  <Energy>  (330) 
204.62160591334916

>  <compound_id>  (330) 
46440

>  <target_id>  (330) 
1

>  <reference_id>  (330) 
122

>  <inspiration_ids>  (330) 
[122, 7]

>  <energy_score>  (330) 
110.15374132095201

>  <distance_score>  (330) 
13.632127346734256

>  <path>  (330) 
/opt/xchem-fragalysis-2/maxwin/BulkDock/SCRATCH/511023/C46440-P122/C46440-P122.minimised.mol

>  <scratch_subdir>  (330) 
/opt/xchem-fragalysis-2/maxwin/BulkDock/SCRATCH/511023/C46440-P122

>  <fragmenstein_runtime>  (330) 
10.963339567184448

>  <fragmenstein_outcome>  (330) 
too moved

>  <fragmenstein_mode>  (330) 
expansion

>  <fragmenstein_error>  (330) 


$$$$
C46440-P7
     RDKit          3D

 32 32  0  0  0  0  0  0  0  0999 V2000
   -4.6652   -2.1118   34.1901 C   0  0  0  0  0  0  0  0  0  0  0  0
   -5.3368   -1.0721   33.2858 C   0  0  0  0  0  0  0  0  0  0  0  0
   -6.7307   -0.7134   33.8645 C   0  0  0  0  0  0  0  0  0  0  0  0
   -4.4799    0.2107   33.3123 C   0  0  0  0  0  0  0  0  0  0  0  0
   -5.4878   -1.5533   31.8093 C   0  0  0  0  0  0  0  0  0  0  0  0
   -4.5102   -2.6076   31.2232 C   0  0  0  0  0  0  0  0  0  0  0  0
   -2.9961   -2.3037   31.0117 C   0  0  0  0  0  0  0  0  0  0  0  0
   -2.5497   -1.5092   29.7355 C   0  0  0  0  0  0  0  0  0  0  0  0
   -3.3143   -0.6415   29.2957 O   0  0  0  0  0  0  0  0  0  0  0  0
   -1.1708   -1.6838   29.0925 C   0  0  0  0  0  0  0  0  0  0  0  0
   -0.5056   -0.7187   28.2549 C   0  0  0  0  0  0  0  0  0  0  0  0
    0.7085   -1.2634   27.9103 C   0  0  0  0  0  0  0  0  0  0  0  0
    0.6970   -2.5163   28.4363 N   0  0  0  0  0  0  0  0  0  0  0  0
   -0.3801   -2.7734   29.2204 N   0  0  0  0  0  0  0  0  0  0  0  0
   -4.6710   -1.7841   35.2360 H   0  0  0  0  0  0  0  0  0  0  0  0
   -5.1728   -3.0767   34.1403 H   0  0  0  0  0  0  0  0  0  0  0  0
   -3.6187   -2.2767   33.9155 H   0  0  0  0  0  0  0  0  0  0  0  0
   -7.3860   -1.5851   33.9123 H   0  0  0  0  0  0  0  0  0  0  0  0
   -7.2268    0.0425   33.2451 H   0  0  0  0  0  0  0  0  0  0  0  0
   -6.6447   -0.3092   34.8794 H   0  0  0  0  0  0  0  0  0  0  0  0
   -4.9421    1.0089   32.7203 H   0  0  0  0  0  0  0  0  0  0  0  0
   -4.3622    0.5863   34.3354 H   0  0  0  0  0  0  0  0  0  0  0  0
   -3.4782    0.0365   32.9085 H   0  0  0  0  0  0  0  0  0  0  0  0
   -6.4883   -1.9888   31.7027 H   0  0  0  0  0  0  0  0  0  0  0  0
   -5.4933   -0.6833   31.1398 H   0  0  0  0  0  0  0  0  0  0  0  0
   -4.5703   -3.5039   31.8523 H   0  0  0  0  0  0  0  0  0  0  0  0
   -4.9128   -2.9053   30.2456 H   0  0  0  0  0  0  0  0  0  0  0  0
   -2.5791   -1.7848   31.8787 H   0  0  0  0  0  0  0  0  0  0  0  0
   -2.4886   -3.2746   30.9484 H   0  0  0  0  0  0  0  0  0  0  0  0
   -0.8877    0.2526   27.9735 H   0  0  0  0  0  0  0  0  0  0  0  0
    1.5330   -0.9089   27.3081 H   0  0  0  0  0  0  0  0  0  0  0  0
    1.4035   -3.2358   28.3309 H   0  0  0  0  0  0  0  0  0  0  0  0
  1  2  1  0
  2  3  1  0
  2  4  1  0
  2  5  1  0
  5  6  1  0
  6  7  1  0
  7  8  1  0
  8  9  2  0
  8 10  1  0
 10 11  1  0
 11 12  2  0
 12 13  1  0
 13 14  1  0
 14 10  2  0
  1 15  1  0
  1 16  1  0
  1 17  1  0
  3 18  1  0
  3 19  1  0
  3 20  1  0
  4 21  1  0
  4 22  1  0
  4 23  1  0
  5 24  1  0
  5 25  1  0
  6 26  1  0
  6 27  1  0
  7 28  1  0
  7 29  1  0
 11 30  1  0
 12 31  1  0
 13 32  1  0
M  END
>  <Energy>  (331) 
69.123031133235386

>  <compound_id>  (331) 
46440

>  <target_id>  (331) 
1

>  <reference_id>  (331) 
7

>  <inspiration_ids>  (331) 
[122, 7]

>  <energy_score>  (331) 
-25.344833459163567

>  <distance_score>  (331) 
13.486885505664237

>  <path>  (331) 
/opt/xchem-fragalysis-2/maxwin/BulkDock/SCRATCH/511023/C46440-P7/C46440-P7.minimised.mol

>  <scratch_subdir>  (331) 
/opt/xchem-fragalysis-2/maxwin/BulkDock/SCRATCH/511023/C46440-P7

>  <fragmenstein_runtime>  (331) 
9.318039178848267

>  <fragmenstein_outcome>  (331) 
too moved

>  <fragmenstein_mode>  (331) 
expansion

>  <fragmenstein_error>  (331) 


$$$$
C46443-P122
     RDKit          3D

 35 35  0  0  0  0  0  0  0  0999 V2000
    6.0300    0.6561   20.8223 C   0  0  0  0  0  0  0  0  0  0  0  0
    5.5067   -0.8952   21.9951 C   0  0  0  0  0  0  0  0  0  0  0  0
    6.0681   -1.7907   20.9260 C   0  0  0  0  0  0  0  0  0  0  0  0
    4.6793   -1.7326   23.6275 C   0  0  0  0  0  0  0  0  0  0  0  0
    4.0099   -1.0192   25.2207 C   0  0  0  0  0  0  0  0  0  0  0  0
    3.0422   -1.8349   26.4780 C   0  0  0  0  0  0  0  0  0  0  0  0
    1.7732   -1.1208   27.3293 C   0  0  0  0  0  0  0  0  0  0  0  0
    1.6651    0.1140   27.3307 O   0  0  0  0  0  0  0  0  0  0  0  0
    0.7691   -1.9639   28.2773 C   0  0  0  0  0  0  0  0  0  0  0  0
   -0.4844   -1.1276   28.7511 C   0  0  0  0  0  0  0  0  0  0  0  0
   -1.4250   -1.6505   29.7491 N   0  0  0  0  0  0  0  0  0  0  0  0
   -1.5031   -1.2590   31.0689 C   0  0  0  0  0  0  0  0  0  0  0  0
   -2.7189   -1.6851   31.5529 C   0  0  0  0  0  0  0  0  0  0  0  0
   -3.3191   -2.3282   30.4608 C   0  0  0  0  0  0  0  0  0  0  0  0
   -2.5450   -2.3218   29.3657 N   0  0  0  0  0  0  0  0  0  0  0  0
    6.3056    1.5789   21.2655 H   0  0  0  0  0  0  0  0  0  0  0  0
    6.9189    0.3993   20.2075 H   0  0  0  0  0  0  0  0  0  0  0  0
    5.3606    0.9554   19.9921 H   0  0  0  0  0  0  0  0  0  0  0  0
    4.7375   -0.1484   22.1960 H   0  0  0  0  0  0  0  0  0  0  0  0
    7.1244   -1.7546   20.9994 H   0  0  0  0  0  0  0  0  0  0  0  0
    6.2866   -1.3067   19.9714 H   0  0  0  0  0  0  0  0  0  0  0  0
    5.6361   -2.7737   20.8422 H   0  0  0  0  0  0  0  0  0  0  0  0
    5.5316   -2.2397   24.0832 H   0  0  0  0  0  0  0  0  0  0  0  0
    3.8448   -2.3785   23.3711 H   0  0  0  0  0  0  0  0  0  0  0  0
    3.5159   -0.0654   25.0429 H   0  0  0  0  0  0  0  0  0  0  0  0
    4.9273   -0.7723   25.7708 H   0  0  0  0  0  0  0  0  0  0  0  0
    2.7474   -2.8036   26.0977 H   0  0  0  0  0  0  0  0  0  0  0  0
    3.7797   -2.0443   27.2659 H   0  0  0  0  0  0  0  0  0  0  0  0
    0.4432   -2.8567   27.7420 H   0  0  0  0  0  0  0  0  0  0  0  0
    1.3498   -2.2792   29.1506 H   0  0  0  0  0  0  0  0  0  0  0  0
   -0.1270   -0.1728   29.1579 H   0  0  0  0  0  0  0  0  0  0  0  0
   -1.0857   -0.8695   27.8703 H   0  0  0  0  0  0  0  0  0  0  0  0
   -0.7077   -0.6876   31.5276 H   0  0  0  0  0  0  0  0  0  0  0  0
   -3.1159   -1.5380   32.5470 H   0  0  0  0  0  0  0  0  0  0  0  0
   -4.2921   -2.8014   30.4146 H   0  0  0  0  0  0  0  0  0  0  0  0
  1  2  1  0
  2  3  1  0
  2  4  1  0
  4  5  1  0
  5  6  1  0
  6  7  1  0
  7  8  2  0
  7  9  1  0
  9 10  1  0
 10 11  1  0
 11 12  1  0
 12 13  2  0
 13 14  1  0
 14 15  2  0
 15 11  1  0
  1 16  1  0
  1 17  1  0
  1 18  1  0
  2 19  1  0
  3 20  1  0
  3 21  1  0
  3 22  1  0
  4 23  1  0
  4 24  1  0
  5 25  1  0
  5 26  1  0
  6 27  1  0
  6 28  1  0
  9 29  1  0
  9 30  1  0
 10 31  1  0
 10 32  1  0
 12 33  1  0
 13 34  1  0
 14 35  1  0
M  END
>  <Energy>  (332) 
291.13797089157038

>  <compound_id>  (332) 
46443

>  <target_id>  (332) 
1

>  <reference_id>  (332) 
122

>  <inspiration_ids>  (332) 
[122, 7]

>  <energy_score>  (332) 
274.519945500535

>  <distance_score>  (332) 
12.790030256482215

>  <path>  (332) 
/opt/xchem-fragalysis-2/maxwin/BulkDock/SCRATCH/511023/C46443-P122/C46443-P122.minimised.mol

>  <scratch_subdir>  (332) 
/opt/xchem-fragalysis-2/maxwin/BulkDock/SCRATCH/511023/C46443-P122

>  <fragmenstein_runtime>  (332) 
6.493717670440674

>  <fragmenstein_outcome>  (332) 
too moved

>  <fragmenstein_mode>  (332) 
expansion

>  <fragmenstein_error>  (332) 


$$$$
C46443-P7
     RDKit          3D

 35 35  0  0  0  0  0  0  0  0999 V2000
    4.6361    0.6166   22.3862 C   0  0  0  0  0  0  0  0  0  0  0  0
    4.7558   -1.3238   22.9459 C   0  0  0  0  0  0  0  0  0  0  0  0
    5.6829   -1.8662   21.3689 C   0  0  0  0  0  0  0  0  0  0  0  0
    3.7382   -2.0770   24.3067 C   0  0  0  0  0  0  0  0  0  0  0  0
    3.2675   -1.2416   25.7200 C   0  0  0  0  0  0  0  0  0  0  0  0
    2.4050   -1.6852   27.1875 C   0  0  0  0  0  0  0  0  0  0  0  0
    1.0117   -2.3669   27.7942 C   0  0  0  0  0  0  0  0  0  0  0  0
    0.9293   -3.6021   27.8681 O   0  0  0  0  0  0  0  0  0  0  0  0
   -0.1395   -1.5056   28.4813 C   0  0  0  0  0  0  0  0  0  0  0  0
   -0.9448   -2.2960   29.5750 C   0  0  0  0  0  0  0  0  0  0  0  0
   -2.2008   -1.7278   30.0692 N   0  0  0  0  0  0  0  0  0  0  0  0
   -2.4372   -1.1950   31.3145 C   0  0  0  0  0  0  0  0  0  0  0  0
   -3.7952   -0.9915   31.4145 C   0  0  0  0  0  0  0  0  0  0  0  0
   -4.3052   -1.4471   30.1878 C   0  0  0  0  0  0  0  0  0  0  0  0
   -3.3478   -1.9043   29.3685 N   0  0  0  0  0  0  0  0  0  0  0  0
    5.5221    1.0507   21.8901 H   0  0  0  0  0  0  0  0  0  0  0  0
    4.1472    1.2025   23.1716 H   0  0  0  0  0  0  0  0  0  0  0  0
    3.8419    0.9175   21.6502 H   0  0  0  0  0  0  0  0  0  0  0  0
    5.4737   -1.4483   23.7910 H   0  0  0  0  0  0  0  0  0  0  0  0
    5.3484   -2.7626   20.8508 H   0  0  0  0  0  0  0  0  0  0  0  0
    5.9901   -0.9522   20.8378 H   0  0  0  0  0  0  0  0  0  0  0  0
    6.7335   -1.9946   21.1502 H   0  0  0  0  0  0  0  0  0  0  0  0
    4.3422   -2.8540   24.7622 H   0  0  0  0  0  0  0  0  0  0  0  0
    2.9333   -2.5805   23.7911 H   0  0  0  0  0  0  0  0  0  0  0  0
    4.2592   -1.0170   26.1493 H   0  0  0  0  0  0  0  0  0  0  0  0
    2.9360   -0.2454   25.4393 H   0  0  0  0  0  0  0  0  0  0  0  0
    3.1618   -2.3218   27.6751 H   0  0  0  0  0  0  0  0  0  0  0  0
    2.4542   -0.7422   27.7541 H   0  0  0  0  0  0  0  0  0  0  0  0
   -0.8116   -1.1486   27.6975 H   0  0  0  0  0  0  0  0  0  0  0  0
    0.3295   -0.6346   28.9508 H   0  0  0  0  0  0  0  0  0  0  0  0
   -0.2958   -2.4384   30.4482 H   0  0  0  0  0  0  0  0  0  0  0  0
   -1.1880   -3.3003   29.2135 H   0  0  0  0  0  0  0  0  0  0  0  0
   -1.6309   -1.0221   32.0138 H   0  0  0  0  0  0  0  0  0  0  0  0
   -4.3377   -0.5827   32.2549 H   0  0  0  0  0  0  0  0  0  0  0  0
   -5.3359   -1.4701   29.8562 H   0  0  0  0  0  0  0  0  0  0  0  0
  1  2  1  0
  2  3  1  0
  2  4  1  0
  4  5  1  0
  5  6  1  0
  6  7  1  0
  7  8  2  0
  7  9  1  0
  9 10  1  0
 10 11  1  0
 11 12  1  0
 12 13  2  0
 13 14  1  0
 14 15  2  0
 15 11  1  0
  1 16  1  0
  1 17  1  0
  1 18  1  0
  2 19  1  0
  3 20  1  0
  3 21  1  0
  3 22  1  0
  4 23  1  0
  4 24  1  0
  5 25  1  0
  5 26  1  0
  6 27  1  0
  6 28  1  0
  9 29  1  0
  9 30  1  0
 10 31  1  0
 10 32  1  0
 12 33  1  0
 13 34  1  0
 14 35  1  0
M  END
>  <Energy>  (333) 
266.65344656351283

>  <compound_id>  (333) 
46443

>  <target_id>  (333) 
1

>  <reference_id>  (333) 
7

>  <inspiration_ids>  (333) 
[122, 7]

>  <energy_score>  (333) 
250.03542117248213

>  <distance_score>  (333) 
12.644948816431862

>  <path>  (333) 
/opt/xchem-fragalysis-2/maxwin/BulkDock/SCRATCH/511023/C46443-P7/C46443-P7.minimised.mol

>  <scratch_subdir>  (333) 
/opt/xchem-fragalysis-2/maxwin/BulkDock/SCRATCH/511023/C46443-P7

>  <fragmenstein_runtime>  (333) 
5.435260057449341

>  <fragmenstein_outcome>  (333) 
too moved

>  <fragmenstein_mode>  (333) 
expansion

>  <fragmenstein_error>  (333) 


$$$$
C46446-P122
     RDKit          3D

 40 40  0  0  0  0  0  0  0  0999 V2000
    1.7735   -6.3314   19.1572 C   0  0  0  0  0  0  0  0  0  0  0  0
    2.0321   -5.0605   19.9404 C   0  0  0  0  0  0  0  0  0  0  0  0
    1.0308   -4.3984   21.0153 C   0  0  0  0  0  0  0  0  0  0  0  0
    0.3544   -3.3323   19.9369 C   0  0  0  0  0  0  0  0  0  0  0  0
    0.3396   -5.0165   22.7189 C   0  0  0  0  0  0  0  0  0  0  0  0
   -1.0660   -5.2102   23.9819 O   0  0  0  0  0  0  0  0  0  0  0  0
   -2.8215   -5.1061   23.6849 N   0  0  0  0  0  0  0  0  0  0  0  0
   -3.7398   -4.0805   23.6608 C   0  0  0  0  0  0  0  0  0  0  0  0
   -3.9175   -2.7718   24.5207 C   0  0  0  0  0  0  0  0  0  0  0  0
   -5.1030   -2.4131   25.3931 N   0  0  0  0  0  0  0  0  0  0  0  0
   -5.0211   -1.6737   26.5652 C   0  0  0  0  0  0  0  0  0  0  0  0
   -6.2745   -1.6483   27.1297 C   0  0  0  0  0  0  0  0  0  0  0  0
   -7.0643   -2.3718   26.2259 C   0  0  0  0  0  0  0  0  0  0  0  0
   -6.3682   -2.8275   25.1755 N   0  0  0  0  0  0  0  0  0  0  0  0
   -4.8914   -4.3388   22.5905 C   0  0  0  0  0  0  0  0  0  0  0  0
   -6.0142   -5.2720   23.0303 C   0  0  0  0  0  0  0  0  0  0  0  0
   -5.4214   -3.0603   21.9457 C   0  0  0  0  0  0  0  0  0  0  0  0
    0.8990   -6.2183   18.5079 H   0  0  0  0  0  0  0  0  0  0  0  0
    1.6211   -7.2062   19.7922 H   0  0  0  0  0  0  0  0  0  0  0  0
    2.6217   -6.5464   18.4967 H   0  0  0  0  0  0  0  0  0  0  0  0
    3.0376   -4.9604   20.3024 H   0  0  0  0  0  0  0  0  0  0  0  0
    2.1451   -4.3650   19.0944 H   0  0  0  0  0  0  0  0  0  0  0  0
    1.7518   -3.7627   21.5325 H   0  0  0  0  0  0  0  0  0  0  0  0
   -0.3492   -2.5959   20.3411 H   0  0  0  0  0  0  0  0  0  0  0  0
    1.1072   -2.7329   19.4127 H   0  0  0  0  0  0  0  0  0  0  0  0
   -0.1319   -3.8333   19.0947 H   0  0  0  0  0  0  0  0  0  0  0  0
    1.0315   -5.6930   23.1848 H   0  0  0  0  0  0  0  0  0  0  0  0
    0.4939   -3.9959   23.0021 H   0  0  0  0  0  0  0  0  0  0  0  0
   -3.2068   -2.9385   25.2968 H   0  0  0  0  0  0  0  0  0  0  0  0
   -3.7148   -1.8845   23.9171 H   0  0  0  0  0  0  0  0  0  0  0  0
   -4.0742   -1.2706   26.8981 H   0  0  0  0  0  0  0  0  0  0  0  0
   -6.5700   -1.1747   28.0549 H   0  0  0  0  0  0  0  0  0  0  0  0
   -8.1237   -2.5877   26.2825 H   0  0  0  0  0  0  0  0  0  0  0  0
   -4.4091   -4.8856   21.7714 H   0  0  0  0  0  0  0  0  0  0  0  0
   -6.6364   -4.8516   23.8195 H   0  0  0  0  0  0  0  0  0  0  0  0
   -5.6130   -6.2226   23.3931 H   0  0  0  0  0  0  0  0  0  0  0  0
   -6.6732   -5.5003   22.1851 H   0  0  0  0  0  0  0  0  0  0  0  0
   -6.0763   -2.4959   22.6126 H   0  0  0  0  0  0  0  0  0  0  0  0
   -4.6002   -2.4015   21.6452 H   0  0  0  0  0  0  0  0  0  0  0  0
   -6.0014   -3.2981   21.0471 H   0  0  0  0  0  0  0  0  0  0  0  0
  1  2  1  0
  2  3  1  0
  3  4  1  0
  3  5  1  0
  5  6  1  0
  6  7  1  0
  7  8  2  3
  8  9  1  0
  9 10  1  0
 10 11  1  0
 11 12  2  0
 12 13  1  0
 13 14  2  0
  8 15  1  0
 15 16  1  0
 15 17  1  0
 14 10  1  0
  1 18  1  0
  1 19  1  0
  1 20  1  0
  2 21  1  0
  2 22  1  0
  3 23  1  0
  4 24  1  0
  4 25  1  0
  4 26  1  0
  5 27  1  0
  5 28  1  0
  9 29  1  0
  9 30  1  0
 11 31  1  0
 12 32  1  0
 13 33  1  0
 15 34  1  0
 16 35  1  0
 16 36  1  0
 16 37  1  0
 17 38  1  0
 17 39  1  0
 17 40  1  0
M  END
>  <Energy>  (334) 
352.12250826337504

>  <compound_id>  (334) 
46446

>  <target_id>  (334) 
1

>  <reference_id>  (334) 
122

>  <inspiration_ids>  (334) 
[122, 7]

>  <energy_score>  (334) 
278.9375040748678

>  <distance_score>  (334) 
13.930155965640342

>  <path>  (334) 
/opt/xchem-fragalysis-2/maxwin/BulkDock/SCRATCH/511023/C46446-P122/C46446-P122.minimised.mol

>  <scratch_subdir>  (334) 
/opt/xchem-fragalysis-2/maxwin/BulkDock/SCRATCH/511023/C46446-P122

>  <fragmenstein_runtime>  (334) 
7.969541549682617

>  <fragmenstein_outcome>  (334) 
too moved

>  <fragmenstein_mode>  (334) 
expansion

>  <fragmenstein_error>  (334) 


$$$$
C46446-P7
     RDKit          3D

 40 40  0  0  0  0  0  0  0  0999 V2000
   -3.0926   -1.3639   21.3191 C   0  0  0  0  0  0  0  0  0  0  0  0
   -4.2542   -1.7934   22.2201 C   0  0  0  0  0  0  0  0  0  0  0  0
   -4.1109   -1.6568   23.7725 C   0  0  0  0  0  0  0  0  0  0  0  0
   -3.5992   -0.2672   24.1435 C   0  0  0  0  0  0  0  0  0  0  0  0
   -5.5028   -1.9331   24.5390 C   0  0  0  0  0  0  0  0  0  0  0  0
   -5.4868   -2.0200   26.0215 O   0  0  0  0  0  0  0  0  0  0  0  0
   -6.8024   -2.3408   26.4590 N   0  0  0  0  0  0  0  0  0  0  0  0
   -6.9950   -2.4602   27.7474 C   0  0  0  0  0  0  0  0  0  0  0  0
   -5.9488   -2.3270   28.8419 C   0  0  0  0  0  0  0  0  0  0  0  0
   -6.2558   -1.3699   29.8985 N   0  0  0  0  0  0  0  0  0  0  0  0
   -6.0082   -1.5126   31.2420 C   0  0  0  0  0  0  0  0  0  0  0  0
   -6.3707   -0.3249   31.8342 C   0  0  0  0  0  0  0  0  0  0  0  0
   -6.7705    0.4866   30.7597 C   0  0  0  0  0  0  0  0  0  0  0  0
   -6.7043   -0.1431   29.5852 N   0  0  0  0  0  0  0  0  0  0  0  0
   -8.4029   -2.9088   28.1341 C   0  0  0  0  0  0  0  0  0  0  0  0
   -8.7180   -4.2608   27.4917 C   0  0  0  0  0  0  0  0  0  0  0  0
   -9.4324   -1.8636   27.7133 C   0  0  0  0  0  0  0  0  0  0  0  0
   -2.1659   -1.8363   21.6264 H   0  0  0  0  0  0  0  0  0  0  0  0
   -2.9893   -0.2757   21.3260 H   0  0  0  0  0  0  0  0  0  0  0  0
   -3.2975   -1.6609   20.2851 H   0  0  0  0  0  0  0  0  0  0  0  0
   -4.5011   -2.8396   22.0015 H   0  0  0  0  0  0  0  0  0  0  0  0
   -5.1360   -1.2171   21.9098 H   0  0  0  0  0  0  0  0  0  0  0  0
   -3.4271   -2.4368   24.1018 H   0  0  0  0  0  0  0  0  0  0  0  0
   -3.5444   -0.1483   25.2309 H   0  0  0  0  0  0  0  0  0  0  0  0
   -2.6233   -0.0458   23.7385 H   0  0  0  0  0  0  0  0  0  0  0  0
   -4.2862    0.5027   23.7736 H   0  0  0  0  0  0  0  0  0  0  0  0
   -6.2114   -1.1392   24.2722 H   0  0  0  0  0  0  0  0  0  0  0  0
   -5.9045   -2.8846   24.1697 H   0  0  0  0  0  0  0  0  0  0  0  0
   -4.9872   -2.0155   28.4239 H   0  0  0  0  0  0  0  0  0  0  0  0
   -5.8193   -3.3084   29.3098 H   0  0  0  0  0  0  0  0  0  0  0  0
   -5.5839   -2.4164   31.6510 H   0  0  0  0  0  0  0  0  0  0  0  0
   -6.3190   -0.0640   32.8805 H   0  0  0  0  0  0  0  0  0  0  0  0
   -7.1099    1.5102   30.7654 H   0  0  0  0  0  0  0  0  0  0  0  0
   -8.4287   -3.0450   29.2140 H   0  0  0  0  0  0  0  0  0  0  0  0
   -8.7894   -4.1858   26.4009 H   0  0  0  0  0  0  0  0  0  0  0  0
   -9.6714   -4.6515   27.8626 H   0  0  0  0  0  0  0  0  0  0  0  0
   -7.9353   -4.9928   27.7184 H   0  0  0  0  0  0  0  0  0  0  0  0
  -10.4362   -2.1564   28.0369 H   0  0  0  0  0  0  0  0  0  0  0  0
   -9.2027   -0.8857   28.1480 H   0  0  0  0  0  0  0  0  0  0  0  0
   -9.4587   -1.7365   26.6253 H   0  0  0  0  0  0  0  0  0  0  0  0
  1  2  1  0
  2  3  1  0
  3  4  1  0
  3  5  1  0
  5  6  1  0
  6  7  1  0
  7  8  2  3
  8  9  1  0
  9 10  1  0
 10 11  1  0
 11 12  2  0
 12 13  1  0
 13 14  2  0
  8 15  1  0
 15 16  1  0
 15 17  1  0
 14 10  1  0
  1 18  1  0
  1 19  1  0
  1 20  1  0
  2 21  1  0
  2 22  1  0
  3 23  1  0
  4 24  1  0
  4 25  1  0
  4 26  1  0
  5 27  1  0
  5 28  1  0
  9 29  1  0
  9 30  1  0
 11 31  1  0
 12 32  1  0
 13 33  1  0
 15 34  1  0
 16 35  1  0
 16 36  1  0
 16 37  1  0
 17 38  1  0
 17 39  1  0
 17 40  1  0
M  END
>  <Energy>  (335) 
45.000955546131507

>  <compound_id>  (335) 
46446

>  <target_id>  (335) 
1

>  <reference_id>  (335) 
7

>  <inspiration_ids>  (335) 
[122, 7]

>  <energy_score>  (335) 
-28.184048642375473

>  <distance_score>  (335) 
13.72189024909634

>  <path>  (335) 
/opt/xchem-fragalysis-2/maxwin/BulkDock/SCRATCH/511023/C46446-P7/C46446-P7.minimised.mol

>  <scratch_subdir>  (335) 
/opt/xchem-fragalysis-2/maxwin/BulkDock/SCRATCH/511023/C46446-P7

>  <fragmenstein_runtime>  (335) 
15.425250053405762

>  <fragmenstein_outcome>  (335) 
too moved

>  <fragmenstein_mode>  (335) 
expansion

>  <fragmenstein_error>  (335) 


$$$$
C46453-P122
     RDKit          3D

 26 26  0  0  0  0  0  0  0  0999 V2000
   10.5413   -3.3964   20.9238 C   0  0  0  0  0  0  0  0  0  0  0  0
    8.2715   -3.2947   21.1756 C   0  0  0  0  0  0  0  0  0  0  0  0
    6.1853   -2.9731   21.4150 C   0  0  0  0  0  0  0  0  0  0  0  0
    5.1217   -2.0855   22.9355 C   0  0  0  0  0  0  0  0  0  0  0  0
    4.6841   -1.7884   24.7598 C   0  0  0  0  0  0  0  0  0  0  0  0
    5.6852   -1.6001   25.4864 O   0  0  0  0  0  0  0  0  0  0  0  0
    3.4750   -1.4208   25.6114 C   0  0  0  0  0  0  0  0  0  0  0  0
    3.2253   -0.1158   26.1797 C   0  0  0  0  0  0  0  0  0  0  0  0
    2.3318   -0.0638   27.1872 N   0  0  0  0  0  0  0  0  0  0  0  0
    2.0864   -1.3580   27.4013 N   0  0  0  0  0  0  0  0  0  0  0  0
    2.8452   -2.1712   26.6054 C   0  0  0  0  0  0  0  0  0  0  0  0
    7.4112   -1.4006   20.6397 C   0  0  0  0  0  0  0  0  0  0  0  0
    6.3083   -0.9836   21.2605 F   0  0  0  0  0  0  0  0  0  0  0  0
    8.3583   -0.4567   20.7509 F   0  0  0  0  0  0  0  0  0  0  0  0
   11.1792   -4.4349   20.7995 H   0  0  0  0  0  0  0  0  0  0  0  0
   11.5136   -3.0132   20.3663 H   0  0  0  0  0  0  0  0  0  0  0  0
   11.1100   -3.2969   22.0083 H   0  0  0  0  0  0  0  0  0  0  0  0
    8.1088   -4.2389   20.5749 H   0  0  0  0  0  0  0  0  0  0  0  0
    5.8416   -2.4904   20.5791 H   0  0  0  0  0  0  0  0  0  0  0  0
    5.4548   -3.4743   20.7215 H   0  0  0  0  0  0  0  0  0  0  0  0
    4.8866   -1.1601   22.4519 H   0  0  0  0  0  0  0  0  0  0  0  0
    5.9522   -2.2878   23.5993 H   0  0  0  0  0  0  0  0  0  0  0  0
    3.6992    0.8011   25.8805 H   0  0  0  0  0  0  0  0  0  0  0  0
    1.4691   -1.6211   28.1598 H   0  0  0  0  0  0  0  0  0  0  0  0
    2.8636   -3.2076   26.8348 H   0  0  0  0  0  0  0  0  0  0  0  0
    7.2792   -1.1300   19.5775 H   0  0  0  0  0  0  0  0  0  0  0  0
  1  2  1  0
  2  3  1  0
  3  4  1  0
  4  5  1  0
  5  6  2  0
  5  7  1  0
  7  8  1  0
  8  9  2  0
  9 10  1  0
 10 11  1  0
  2 12  1  0
 12 13  1  0
 12 14  1  0
 11  7  2  0
  1 15  1  0
  1 16  1  0
  1 17  1  0
  2 18  1  0
  3 19  1  0
  3 20  1  0
  4 21  1  0
  4 22  1  0
  8 23  1  0
 10 24  1  0
 11 25  1  0
 12 26  1  0
M  END
>  <Energy>  (336) 
861.9520639919939

>  <compound_id>  (336) 
46453

>  <target_id>  (336) 
1

>  <reference_id>  (336) 
122

>  <inspiration_ids>  (336) 
[122, 7]

>  <energy_score>  (336) 
812.4122915040516

>  <distance_score>  (336) 
14.249185140647842

>  <path>  (336) 
/opt/xchem-fragalysis-2/maxwin/BulkDock/SCRATCH/511023/C46453-P122/C46453-P122.minimised.mol

>  <scratch_subdir>  (336) 
/opt/xchem-fragalysis-2/maxwin/BulkDock/SCRATCH/511023/C46453-P122

>  <fragmenstein_runtime>  (336) 
7.152641534805298

>  <fragmenstein_outcome>  (336) 
too moved

>  <fragmenstein_mode>  (336) 
expansion

>  <fragmenstein_error>  (336) 


$$$$
C46453-P7
     RDKit          3D

 26 26  0  0  0  0  0  0  0  0999 V2000
    1.2345    3.5399   21.9883 C   0  0  0  0  0  0  0  0  0  0  0  0
    2.2058    3.6376   23.1589 C   0  0  0  0  0  0  0  0  0  0  0  0
    1.4768    4.1115   24.5322 C   0  0  0  0  0  0  0  0  0  0  0  0
    0.2062    3.3219   25.1167 C   0  0  0  0  0  0  0  0  0  0  0  0
   -0.3075    3.7261   26.5732 C   0  0  0  0  0  0  0  0  0  0  0  0
    0.3366    4.5716   27.1994 O   0  0  0  0  0  0  0  0  0  0  0  0
   -1.4967    3.1073   27.2268 C   0  0  0  0  0  0  0  0  0  0  0  0
   -1.8142    3.1336   28.6210 C   0  0  0  0  0  0  0  0  0  0  0  0
   -2.9596    2.5120   28.9242 N   0  0  0  0  0  0  0  0  0  0  0  0
   -3.4172    2.1097   27.7327 N   0  0  0  0  0  0  0  0  0  0  0  0
   -2.5785    2.4302   26.6928 C   0  0  0  0  0  0  0  0  0  0  0  0
    3.3534    4.5914   22.6970 C   0  0  0  0  0  0  0  0  0  0  0  0
    4.5413    4.2191   23.2350 F   0  0  0  0  0  0  0  0  0  0  0  0
    3.5702    4.5465   21.3496 F   0  0  0  0  0  0  0  0  0  0  0  0
    0.3206    3.0047   22.2549 H   0  0  0  0  0  0  0  0  0  0  0  0
    1.6957    3.0292   21.1376 H   0  0  0  0  0  0  0  0  0  0  0  0
    0.9250    4.5373   21.6552 H   0  0  0  0  0  0  0  0  0  0  0  0
    2.6336    2.6496   23.3575 H   0  0  0  0  0  0  0  0  0  0  0  0
    1.1676    5.1566   24.4011 H   0  0  0  0  0  0  0  0  0  0  0  0
    2.2487    4.1193   25.3124 H   0  0  0  0  0  0  0  0  0  0  0  0
   -0.6335    3.4374   24.4244 H   0  0  0  0  0  0  0  0  0  0  0  0
    0.4788    2.2689   25.1803 H   0  0  0  0  0  0  0  0  0  0  0  0
   -1.2340    3.5874   29.4165 H   0  0  0  0  0  0  0  0  0  0  0  0
   -4.3145    1.6357   27.7015 H   0  0  0  0  0  0  0  0  0  0  0  0
   -2.8424    2.1952   25.6738 H   0  0  0  0  0  0  0  0  0  0  0  0
    3.1536    5.6309   22.9719 H   0  0  0  0  0  0  0  0  0  0  0  0
  1  2  1  0
  2  3  1  0
  3  4  1  0
  4  5  1  0
  5  6  2  0
  5  7  1  0
  7  8  1  0
  8  9  2  0
  9 10  1  0
 10 11  1  0
  2 12  1  0
 12 13  1  0
 12 14  1  0
 11  7  2  0
  1 15  1  0
  1 16  1  0
  1 17  1  0
  2 18  1  0
  3 19  1  0
  3 20  1  0
  4 21  1  0
  4 22  1  0
  8 23  1  0
 10 24  1  0
 11 25  1  0
 12 26  1  0
M  END
>  <Energy>  (337) 
43.725792393375777

>  <compound_id>  (337) 
46453

>  <target_id>  (337) 
1

>  <reference_id>  (337) 
7

>  <inspiration_ids>  (337) 
[122, 7]

>  <energy_score>  (337) 
-5.813980094567171

>  <distance_score>  (337) 
13.779975425955355

>  <path>  (337) 
/opt/xchem-fragalysis-2/maxwin/BulkDock/SCRATCH/511023/C46453-P7/C46453-P7.minimised.mol

>  <scratch_subdir>  (337) 
/opt/xchem-fragalysis-2/maxwin/BulkDock/SCRATCH/511023/C46453-P7

>  <fragmenstein_runtime>  (337) 
6.270071744918823

>  <fragmenstein_outcome>  (337) 
too moved

>  <fragmenstein_mode>  (337) 
expansion

>  <fragmenstein_error>  (337) 


$$$$
C46462-P122
     RDKit          3D

 26 26  0  0  0  0  0  0  0  0999 V2000
   -1.8883   -0.1555   30.6849 C   0  0  0  0  0  0  0  0  0  0  0  0
   -1.6582   -1.6694   30.6750 C   0  0  0  0  0  0  0  0  0  0  0  0
   -0.0974   -1.9988   30.2642 C   0  0  0  0  0  0  0  0  0  0  0  0
    0.4597   -1.6720   28.7742 C   0  0  0  0  0  0  0  0  0  0  0  0
   -0.3138   -1.1565   27.9668 O   0  0  0  0  0  0  0  0  0  0  0  0
    1.8712   -1.9603   28.4022 C   0  0  0  0  0  0  0  0  0  0  0  0
    2.9974   -2.2802   29.1453 C   0  0  0  0  0  0  0  0  0  0  0  0
    4.0728   -2.3819   28.2317 C   0  0  0  0  0  0  0  0  0  0  0  0
    3.6848   -2.1585   26.9818 N   0  0  0  0  0  0  0  0  0  0  0  0
    2.3561   -1.9363   27.1019 N   0  0  0  0  0  0  0  0  0  0  0  0
   -2.1291   -2.2271   32.0830 C   0  0  0  0  0  0  0  0  0  0  0  0
   -3.5811   -1.9003   32.5460 C   0  0  0  0  0  0  0  0  0  0  0  0
   -3.8117   -2.4084   33.7892 F   0  0  0  0  0  0  0  0  0  0  0  0
   -4.4829   -2.5197   31.7446 F   0  0  0  0  0  0  0  0  0  0  0  0
   -1.2696    0.3247   31.4510 H   0  0  0  0  0  0  0  0  0  0  0  0
   -1.6149    0.2838   29.7207 H   0  0  0  0  0  0  0  0  0  0  0  0
   -2.9251    0.1229   30.8729 H   0  0  0  0  0  0  0  0  0  0  0  0
   -2.2791   -2.1273   29.8981 H   0  0  0  0  0  0  0  0  0  0  0  0
    0.5526   -1.4678   30.9697 H   0  0  0  0  0  0  0  0  0  0  0  0
    0.0480   -3.0764   30.4074 H   0  0  0  0  0  0  0  0  0  0  0  0
    3.0494   -2.4026   30.2178 H   0  0  0  0  0  0  0  0  0  0  0  0
    5.1130   -2.6040   28.4328 H   0  0  0  0  0  0  0  0  0  0  0  0
    1.8234   -1.8100   26.2482 H   0  0  0  0  0  0  0  0  0  0  0  0
   -1.9876   -3.3121   32.0736 H   0  0  0  0  0  0  0  0  0  0  0  0
   -1.4427   -1.8476   32.8506 H   0  0  0  0  0  0  0  0  0  0  0  0
   -3.7968   -0.8314   32.5796 H   0  0  0  0  0  0  0  0  0  0  0  0
  1  2  1  0
  2  3  1  0
  3  4  1  0
  4  5  2  0
  4  6  1  0
  6  7  2  0
  7  8  1  0
  8  9  2  0
  9 10  1  0
  2 11  1  0
 11 12  1  0
 12 13  1  0
 12 14  1  0
 10  6  1  0
  1 15  1  0
  1 16  1  0
  1 17  1  0
  2 18  1  0
  3 19  1  0
  3 20  1  0
  7 21  1  0
  8 22  1  0
 10 23  1  0
 11 24  1  0
 11 25  1  0
 12 26  1  0
M  END
>  <Energy>  (338) 
26.015918931092177

>  <compound_id>  (338) 
46462

>  <target_id>  (338) 
1

>  <reference_id>  (338) 
122

>  <inspiration_ids>  (338) 
[122, 7]

>  <energy_score>  (338) 
-4.680772832067191

>  <distance_score>  (338) 
14.170989648993144

>  <path>  (338) 
/opt/xchem-fragalysis-2/maxwin/BulkDock/SCRATCH/511023/C46462-P122/C46462-P122.minimised.mol

>  <scratch_subdir>  (338) 
/opt/xchem-fragalysis-2/maxwin/BulkDock/SCRATCH/511023/C46462-P122

>  <fragmenstein_runtime>  (338) 
7.130382299423218

>  <fragmenstein_outcome>  (338) 
too moved

>  <fragmenstein_mode>  (338) 
expansion

>  <fragmenstein_error>  (338) 


$$$$
C46462-P7
     RDKit          3D

 26 26  0  0  0  0  0  0  0  0999 V2000
  -10.9034   -5.1907   25.8256 C   0  0  0  0  0  0  0  0  0  0  0  0
   -9.7720   -4.1643   25.6735 C   0  0  0  0  0  0  0  0  0  0  0  0
   -9.3159   -3.9282   24.0900 C   0  0  0  0  0  0  0  0  0  0  0  0
   -8.5104   -5.0731   23.3094 C   0  0  0  0  0  0  0  0  0  0  0  0
   -8.5145   -6.1974   23.8252 O   0  0  0  0  0  0  0  0  0  0  0  0
   -7.7886   -4.8825   22.0187 C   0  0  0  0  0  0  0  0  0  0  0  0
   -7.6055   -3.8505   21.1153 C   0  0  0  0  0  0  0  0  0  0  0  0
   -6.6504   -4.3135   20.1678 C   0  0  0  0  0  0  0  0  0  0  0  0
   -6.2601   -5.5601   20.4163 N   0  0  0  0  0  0  0  0  0  0  0  0
   -7.0147   -5.9077   21.4733 N   0  0  0  0  0  0  0  0  0  0  0  0
  -10.1966   -2.8453   26.4170 C   0  0  0  0  0  0  0  0  0  0  0  0
  -10.1566   -2.8393   27.9601 C   0  0  0  0  0  0  0  0  0  0  0  0
  -10.6603   -1.6600   28.4199 F   0  0  0  0  0  0  0  0  0  0  0  0
  -10.9257   -3.8051   28.5128 F   0  0  0  0  0  0  0  0  0  0  0  0
  -11.8303   -4.8203   25.3758 H   0  0  0  0  0  0  0  0  0  0  0  0
  -11.0992   -5.4274   26.8746 H   0  0  0  0  0  0  0  0  0  0  0  0
  -10.6444   -6.1291   25.3267 H   0  0  0  0  0  0  0  0  0  0  0  0
   -8.9202   -4.5755   26.2095 H   0  0  0  0  0  0  0  0  0  0  0  0
  -10.2195   -3.7160   23.5074 H   0  0  0  0  0  0  0  0  0  0  0  0
   -8.6772   -3.0378   24.0667 H   0  0  0  0  0  0  0  0  0  0  0  0
   -8.0661   -2.8745   21.1372 H   0  0  0  0  0  0  0  0  0  0  0  0
   -6.2275   -3.7850   19.3224 H   0  0  0  0  0  0  0  0  0  0  0  0
   -6.9148   -6.8445   21.8524 H   0  0  0  0  0  0  0  0  0  0  0  0
   -9.5434   -2.0311   26.0788 H   0  0  0  0  0  0  0  0  0  0  0  0
  -11.2072   -2.5658   26.0939 H   0  0  0  0  0  0  0  0  0  0  0  0
   -9.1332   -2.9433   28.3268 H   0  0  0  0  0  0  0  0  0  0  0  0
  1  2  1  0
  2  3  1  0
  3  4  1  0
  4  5  2  0
  4  6  1  0
  6  7  2  0
  7  8  1  0
  8  9  2  0
  9 10  1  0
  2 11  1  0
 11 12  1  0
 12 13  1  0
 12 14  1  0
 10  6  1  0
  1 15  1  0
  1 16  1  0
  1 17  1  0
  2 18  1  0
  3 19  1  0
  3 20  1  0
  7 21  1  0
  8 22  1  0
 10 23  1  0
 11 24  1  0
 11 25  1  0
 12 26  1  0
M  END
>  <Energy>  (339) 
28.387945906139965

>  <compound_id>  (339) 
46462

>  <target_id>  (339) 
1

>  <reference_id>  (339) 
7

>  <inspiration_ids>  (339) 
[122, 7]

>  <energy_score>  (339) 
-2.3087458570197157

>  <distance_score>  (339) 
16.25054750207782

>  <path>  (339) 
/opt/xchem-fragalysis-2/maxwin/BulkDock/SCRATCH/511023/C46462-P7/C46462-P7.minimised.mol

>  <scratch_subdir>  (339) 
/opt/xchem-fragalysis-2/maxwin/BulkDock/SCRATCH/511023/C46462-P7

>  <fragmenstein_runtime>  (339) 
7.412391185760498

>  <fragmenstein_outcome>  (339) 
too moved

>  <fragmenstein_mode>  (339) 
expansion

>  <fragmenstein_error>  (339) 


$$$$
C46469-P122
     RDKit          3D

 32 32  0  0  0  0  0  0  0  0999 V2000
    8.3580   -1.4944   19.4407 C   0  0  0  0  0  0  0  0  0  0  0  0
    8.7601   -3.6092   20.3255 C   0  0  0  0  0  0  0  0  0  0  0  0
    7.7044   -5.1398   20.2897 C   0  0  0  0  0  0  0  0  0  0  0  0
    9.7186   -5.3442   20.2287 C   0  0  0  0  0  0  0  0  0  0  0  0
    7.3796   -3.3208   21.6277 C   0  0  0  0  0  0  0  0  0  0  0  0
    5.5429   -2.3713   22.0546 C   0  0  0  0  0  0  0  0  0  0  0  0
    4.6852   -2.0963   23.8349 C   0  0  0  0  0  0  0  0  0  0  0  0
    4.1007   -1.0331   25.2381 C   0  0  0  0  0  0  0  0  0  0  0  0
    4.6838    0.0250   25.4943 O   0  0  0  0  0  0  0  0  0  0  0  0
    3.0683   -1.2870   26.3682 C   0  0  0  0  0  0  0  0  0  0  0  0
    2.4224   -2.3689   27.0069 C   0  0  0  0  0  0  0  0  0  0  0  0
    1.5898   -2.0635   28.0203 N   0  0  0  0  0  0  0  0  0  0  0  0
    1.7138   -0.7389   28.1007 N   0  0  0  0  0  0  0  0  0  0  0  0
    2.5840   -0.2403   27.1780 C   0  0  0  0  0  0  0  0  0  0  0  0
    8.4154   -0.8640   18.5446 H   0  0  0  0  0  0  0  0  0  0  0  0
    7.2509   -1.2079   19.4830 H   0  0  0  0  0  0  0  0  0  0  0  0
    8.1772   -0.6909   20.2687 H   0  0  0  0  0  0  0  0  0  0  0  0
    7.7186   -5.5672   21.3215 H   0  0  0  0  0  0  0  0  0  0  0  0
    7.8668   -6.2075   19.9614 H   0  0  0  0  0  0  0  0  0  0  0  0
    6.8166   -4.9380   19.6707 H   0  0  0  0  0  0  0  0  0  0  0  0
    9.7468   -5.7455   19.2630 H   0  0  0  0  0  0  0  0  0  0  0  0
   10.8420   -5.3585   20.3950 H   0  0  0  0  0  0  0  0  0  0  0  0
    9.4329   -6.1963   20.8986 H   0  0  0  0  0  0  0  0  0  0  0  0
    6.6103   -3.2049   20.9066 H   0  0  0  0  0  0  0  0  0  0  0  0
    7.5044   -3.9705   22.5348 H   0  0  0  0  0  0  0  0  0  0  0  0
    5.6463   -1.3256   21.7489 H   0  0  0  0  0  0  0  0  0  0  0  0
    5.0947   -3.0095   21.2885 H   0  0  0  0  0  0  0  0  0  0  0  0
    5.5174   -2.4688   24.4275 H   0  0  0  0  0  0  0  0  0  0  0  0
    3.7687   -2.6955   23.7815 H   0  0  0  0  0  0  0  0  0  0  0  0
    2.4872   -3.3981   26.7582 H   0  0  0  0  0  0  0  0  0  0  0  0
    1.2034   -0.2405   28.8212 H   0  0  0  0  0  0  0  0  0  0  0  0
    2.8094    0.8164   27.1418 H   0  0  0  0  0  0  0  0  0  0  0  0
  1  2  1  0
  2  3  1  0
  2  4  1  0
  2  5  1  0
  5  6  1  0
  6  7  1  0
  7  8  1  0
  8  9  2  0
  8 10  1  0
 10 11  1  0
 11 12  2  0
 12 13  1  0
 13 14  1  0
 14 10  2  0
  1 15  1  0
  1 16  1  0
  1 17  1  0
  3 18  1  0
  3 19  1  0
  3 20  1  0
  4 21  1  0
  4 22  1  0
  4 23  1  0
  5 24  1  0
  5 25  1  0
  6 26  1  0
  6 27  1  0
  7 28  1  0
  7 29  1  0
 11 30  1  0
 13 31  1  0
 14 32  1  0
M  END
>  <Energy>  (340) 
857.66467672123167

>  <compound_id>  (340) 
46469

>  <target_id>  (340) 
1

>  <reference_id>  (340) 
122

>  <inspiration_ids>  (340) 
[122, 7]

>  <energy_score>  (340) 
795.905531807322

>  <distance_score>  (340) 
13.580136496851278

>  <path>  (340) 
/opt/xchem-fragalysis-2/maxwin/BulkDock/SCRATCH/511023/C46469-P122/C46469-P122.minimised.mol

>  <scratch_subdir>  (340) 
/opt/xchem-fragalysis-2/maxwin/BulkDock/SCRATCH/511023/C46469-P122

>  <fragmenstein_runtime>  (340) 
7.053655385971069

>  <fragmenstein_outcome>  (340) 
too moved

>  <fragmenstein_mode>  (340) 
expansion

>  <fragmenstein_error>  (340) 


$$$$
C46469-P7
     RDKit          3D

 32 32  0  0  0  0  0  0  0  0999 V2000
   -0.2097   -7.2036   23.5383 C   0  0  0  0  0  0  0  0  0  0  0  0
    0.1868   -8.1548   24.6810 C   0  0  0  0  0  0  0  0  0  0  0  0
   -0.0533   -9.6025   24.1729 C   0  0  0  0  0  0  0  0  0  0  0  0
    1.6997   -8.0423   24.9487 C   0  0  0  0  0  0  0  0  0  0  0  0
   -0.7028   -8.0223   26.0300 C   0  0  0  0  0  0  0  0  0  0  0  0
   -1.2631   -6.6508   26.4990 C   0  0  0  0  0  0  0  0  0  0  0  0
   -2.1339   -6.6303   27.8251 C   0  0  0  0  0  0  0  0  0  0  0  0
   -2.8609   -5.2667   28.1111 C   0  0  0  0  0  0  0  0  0  0  0  0
   -2.9304   -4.4465   27.1884 O   0  0  0  0  0  0  0  0  0  0  0  0
   -3.4397   -4.9422   29.4299 C   0  0  0  0  0  0  0  0  0  0  0  0
   -3.5980   -5.7108   30.6067 C   0  0  0  0  0  0  0  0  0  0  0  0
   -4.1217   -5.0176   31.6244 N   0  0  0  0  0  0  0  0  0  0  0  0
   -4.2931   -3.7874   31.1175 N   0  0  0  0  0  0  0  0  0  0  0  0
   -3.9575   -3.7077   29.7988 C   0  0  0  0  0  0  0  0  0  0  0  0
   -1.2975   -7.2048   23.4053 H   0  0  0  0  0  0  0  0  0  0  0  0
    0.2249   -7.5129   22.5824 H   0  0  0  0  0  0  0  0  0  0  0  0
    0.0972   -6.1808   23.7319 H   0  0  0  0  0  0  0  0  0  0  0  0
    0.2187  -10.3386   24.9380 H   0  0  0  0  0  0  0  0  0  0  0  0
   -1.1061   -9.7603   23.9120 H   0  0  0  0  0  0  0  0  0  0  0  0
    0.5412   -9.8182   23.2774 H   0  0  0  0  0  0  0  0  0  0  0  0
    1.9621   -8.6236   25.8374 H   0  0  0  0  0  0  0  0  0  0  0  0
    1.9945   -7.0049   25.0949 H   0  0  0  0  0  0  0  0  0  0  0  0
    2.2910   -8.4708   24.1347 H   0  0  0  0  0  0  0  0  0  0  0  0
   -1.5835   -8.6680   25.9076 H   0  0  0  0  0  0  0  0  0  0  0  0
   -0.1327   -8.4613   26.8589 H   0  0  0  0  0  0  0  0  0  0  0  0
   -0.4191   -5.9752   26.6527 H   0  0  0  0  0  0  0  0  0  0  0  0
   -1.8860   -6.2681   25.6847 H   0  0  0  0  0  0  0  0  0  0  0  0
   -2.9082   -7.4023   27.7583 H   0  0  0  0  0  0  0  0  0  0  0  0
   -1.4809   -6.8595   28.6739 H   0  0  0  0  0  0  0  0  0  0  0  0
   -3.3393   -6.7493   30.7726 H   0  0  0  0  0  0  0  0  0  0  0  0
   -4.6580   -3.0574   31.7227 H   0  0  0  0  0  0  0  0  0  0  0  0
   -4.0611   -2.7835   29.2469 H   0  0  0  0  0  0  0  0  0  0  0  0
  1  2  1  0
  2  3  1  0
  2  4  1  0
  2  5  1  0
  5  6  1  0
  6  7  1  0
  7  8  1  0
  8  9  2  0
  8 10  1  0
 10 11  1  0
 11 12  2  0
 12 13  1  0
 13 14  1  0
 14 10  2  0
  1 15  1  0
  1 16  1  0
  1 17  1  0
  3 18  1  0
  3 19  1  0
  3 20  1  0
  4 21  1  0
  4 22  1  0
  4 23  1  0
  5 24  1  0
  5 25  1  0
  6 26  1  0
  6 27  1  0
  7 28  1  0
  7 29  1  0
 11 30  1  0
 13 31  1  0
 14 32  1  0
M  END
>  <Energy>  (341) 
44.507152499794351

>  <compound_id>  (341) 
46469

>  <target_id>  (341) 
1

>  <reference_id>  (341) 
7

>  <inspiration_ids>  (341) 
[122, 7]

>  <energy_score>  (341) 
-17.251992414121446

>  <distance_score>  (341) 
13.637171022082134

>  <path>  (341) 
/opt/xchem-fragalysis-2/maxwin/BulkDock/SCRATCH/511023/C46469-P7/C46469-P7.minimised.mol

>  <scratch_subdir>  (341) 
/opt/xchem-fragalysis-2/maxwin/BulkDock/SCRATCH/511023/C46469-P7

>  <fragmenstein_runtime>  (341) 
7.463770627975464

>  <fragmenstein_outcome>  (341) 
too moved

>  <fragmenstein_mode>  (341) 
expansion

>  <fragmenstein_error>  (341) 


$$$$
C46480-P122
     RDKit          3D

 42 44  0  0  0  0  0  0  0  0999 V2000
   -1.2371   -1.8812   29.3491 C   0  0  0  0  0  0  0  0  0  0  0  0
   -0.0680   -2.4665   30.1602 C   0  0  0  0  0  0  0  0  0  0  0  0
    0.2968   -3.8550   29.5889 C   0  0  0  0  0  0  0  0  0  0  0  0
   -0.5038   -2.6526   31.6133 C   0  0  0  0  0  0  0  0  0  0  0  0
   -0.0262   -2.1427   32.6144 O   0  0  0  0  0  0  0  0  0  0  0  0
   -1.5625   -3.4872   31.7574 O   0  0  0  0  0  0  0  0  0  0  0  0
    1.0741   -1.5369   30.0878 N   0  0  0  0  0  0  0  0  0  0  0  0
    1.1036   -0.2215   30.4683 C   0  0  0  0  0  0  0  0  0  0  0  0
    2.3204    0.2654   30.0349 C   0  0  0  0  0  0  0  0  0  0  0  0
    2.9858   -0.8199   29.4016 C   0  0  0  0  0  0  0  0  0  0  0  0
    4.2220   -0.8557   28.7817 N   0  0  0  0  0  0  0  0  0  0  0  0
    5.2042    0.1811   28.5654 C   0  0  0  0  0  0  0  0  0  0  0  0
    5.2337    1.3208   28.9376 O   0  0  0  0  0  0  0  0  0  0  0  0
    6.4038   -0.3254   27.7649 C   0  0  0  0  0  0  0  0  0  0  0  0
    6.5403   -1.6144   27.3683 N   0  0  0  0  0  0  0  0  0  0  0  0
    7.7272   -1.6631   26.7036 N   0  0  0  0  0  0  0  0  0  0  0  0
    8.3271   -0.4542   26.5827 C   0  0  0  0  0  0  0  0  0  0  0  0
    7.5430    0.4262   27.3008 C   0  0  0  0  0  0  0  0  0  0  0  0
    7.8989    1.8640   27.4515 C   0  0  0  0  0  0  0  0  0  0  0  0
    9.3655    2.1124   27.0316 C   0  0  0  0  0  0  0  0  0  0  0  0
    9.7559    1.3716   25.7346 C   0  0  0  0  0  0  0  0  0  0  0  0
    9.5840   -0.1569   25.8453 C   0  0  0  0  0  0  0  0  0  0  0  0
    2.2223   -1.9180   29.4719 N   0  0  0  0  0  0  0  0  0  0  0  0
   -0.9397   -1.6758   28.3144 H   0  0  0  0  0  0  0  0  0  0  0  0
   -1.6010   -0.9428   29.7837 H   0  0  0  0  0  0  0  0  0  0  0  0
   -2.0896   -2.5663   29.3226 H   0  0  0  0  0  0  0  0  0  0  0  0
    1.1162   -4.3152   30.1544 H   0  0  0  0  0  0  0  0  0  0  0  0
    0.6029   -3.7921   28.5379 H   0  0  0  0  0  0  0  0  0  0  0  0
   -0.5474   -4.5489   29.6352 H   0  0  0  0  0  0  0  0  0  0  0  0
   -1.7041   -3.5315   32.7294 H   0  0  0  0  0  0  0  0  0  0  0  0
    0.2832    0.2511   30.9893 H   0  0  0  0  0  0  0  0  0  0  0  0
    2.6895    1.2750   30.1489 H   0  0  0  0  0  0  0  0  0  0  0  0
    4.5653   -1.7240   28.3870 H   0  0  0  0  0  0  0  0  0  0  0  0
    8.0347   -2.5611   26.3373 H   0  0  0  0  0  0  0  0  0  0  0  0
    7.2318    2.4667   26.8255 H   0  0  0  0  0  0  0  0  0  0  0  0
    7.7628    2.1899   28.4883 H   0  0  0  0  0  0  0  0  0  0  0  0
    9.5293    3.1890   26.9085 H   0  0  0  0  0  0  0  0  0  0  0  0
   10.0321    1.7795   27.8380 H   0  0  0  0  0  0  0  0  0  0  0  0
    9.1350    1.7486   24.9131 H   0  0  0  0  0  0  0  0  0  0  0  0
   10.7951    1.6013   25.4727 H   0  0  0  0  0  0  0  0  0  0  0  0
   10.4310   -0.5802   26.3978 H   0  0  0  0  0  0  0  0  0  0  0  0
    9.5750   -0.6075   24.8472 H   0  0  0  0  0  0  0  0  0  0  0  0
  1  2  1  0
  2  3  1  0
  2  4  1  0
  4  5  2  0
  4  6  1  0
  2  7  1  0
  7  8  1  0
  8  9  2  0
  9 10  1  0
 10 11  1  0
 11 12  1  0
 12 13  2  0
 12 14  1  0
 14 15  2  0
 15 16  1  0
 16 17  1  0
 17 18  2  0
 18 19  1  0
 19 20  1  0
 20 21  1  0
 21 22  1  0
 10 23  2  0
 23  7  1  0
 18 14  1  0
 22 17  1  0
  1 24  1  0
  1 25  1  0
  1 26  1  0
  3 27  1  0
  3 28  1  0
  3 29  1  0
  6 30  1  0
  8 31  1  0
  9 32  1  0
 11 33  1  0
 16 34  1  0
 19 35  1  0
 19 36  1  0
 20 37  1  0
 20 38  1  0
 21 39  1  0
 21 40  1  0
 22 41  1  0
 22 42  1  0
M  END
>  <Energy>  (342) 
6.4009345596271725

>  <compound_id>  (342) 
46480

>  <target_id>  (342) 
1

>  <reference_id>  (342) 
122

>  <inspiration_ids>  (342) 
[122, 7]

>  <energy_score>  (342) 
-78.68480010656765

>  <distance_score>  (342) 
14.189045006710188

>  <path>  (342) 
/opt/xchem-fragalysis-2/maxwin/BulkDock/SCRATCH/511023/C46480-P122/C46480-P122.minimised.mol

>  <scratch_subdir>  (342) 
/opt/xchem-fragalysis-2/maxwin/BulkDock/SCRATCH/511023/C46480-P122

>  <fragmenstein_runtime>  (342) 
17.96822452545166

>  <fragmenstein_outcome>  (342) 
too moved

>  <fragmenstein_mode>  (342) 
expansion

>  <fragmenstein_error>  (342) 


$$$$
C46480-P7
     RDKit          3D

 42 44  0  0  0  0  0  0  0  0999 V2000
   -1.1291   -2.8355   32.5516 C   0  0  0  0  0  0  0  0  0  0  0  0
   -0.7992   -1.3473   32.3377 C   0  0  0  0  0  0  0  0  0  0  0  0
    0.3757   -0.9449   33.2520 C   0  0  0  0  0  0  0  0  0  0  0  0
   -1.9767   -0.4641   32.7491 C   0  0  0  0  0  0  0  0  0  0  0  0
   -2.3505    0.5776   32.2321 O   0  0  0  0  0  0  0  0  0  0  0  0
   -2.6203   -0.8930   33.8601 O   0  0  0  0  0  0  0  0  0  0  0  0
   -0.4817   -1.1491   30.9126 N   0  0  0  0  0  0  0  0  0  0  0  0
   -1.3596   -1.1046   29.8651 C   0  0  0  0  0  0  0  0  0  0  0  0
   -0.5771   -1.0254   28.7338 C   0  0  0  0  0  0  0  0  0  0  0  0
    0.7797   -1.0663   29.1666 C   0  0  0  0  0  0  0  0  0  0  0  0
    1.8902   -1.0337   28.3340 N   0  0  0  0  0  0  0  0  0  0  0  0
    3.3027   -0.9445   28.6386 C   0  0  0  0  0  0  0  0  0  0  0  0
    3.8795   -0.9551   29.6907 O   0  0  0  0  0  0  0  0  0  0  0  0
    4.1343   -0.7934   27.3776 C   0  0  0  0  0  0  0  0  0  0  0  0
    3.5682   -0.6865   26.1602 N   0  0  0  0  0  0  0  0  0  0  0  0
    4.5927   -0.5817   25.2777 N   0  0  0  0  0  0  0  0  0  0  0  0
    5.8178   -0.6319   25.8796 C   0  0  0  0  0  0  0  0  0  0  0  0
    5.5635   -0.7389   27.2345 C   0  0  0  0  0  0  0  0  0  0  0  0
    6.6473   -0.8456   28.2506 C   0  0  0  0  0  0  0  0  0  0  0  0
    8.0191   -0.4949   27.6350 C   0  0  0  0  0  0  0  0  0  0  0  0
    8.2198   -1.1068   26.2325 C   0  0  0  0  0  0  0  0  0  0  0  0
    7.1585   -0.6143   25.2241 C   0  0  0  0  0  0  0  0  0  0  0  0
    0.8117   -1.1610   30.5015 N   0  0  0  0  0  0  0  0  0  0  0  0
   -1.2875   -3.0685   33.6107 H   0  0  0  0  0  0  0  0  0  0  0  0
   -0.3178   -3.4790   32.1911 H   0  0  0  0  0  0  0  0  0  0  0  0
   -2.0419   -3.1222   32.0157 H   0  0  0  0  0  0  0  0  0  0  0  0
    0.6686    0.0987   33.0849 H   0  0  0  0  0  0  0  0  0  0  0  0
    1.2577   -1.5729   33.0817 H   0  0  0  0  0  0  0  0  0  0  0  0
    0.1073   -1.0400   34.3109 H   0  0  0  0  0  0  0  0  0  0  0  0
   -3.2905   -0.1957   34.0260 H   0  0  0  0  0  0  0  0  0  0  0  0
   -2.4320   -1.1279   29.9959 H   0  0  0  0  0  0  0  0  0  0  0  0
   -0.9319   -0.9686   27.7166 H   0  0  0  0  0  0  0  0  0  0  0  0
    1.7582   -0.9084   27.3320 H   0  0  0  0  0  0  0  0  0  0  0  0
    4.3521   -0.4528   24.2906 H   0  0  0  0  0  0  0  0  0  0  0  0
    6.4504   -0.1819   29.0993 H   0  0  0  0  0  0  0  0  0  0  0  0
    6.6747   -1.8735   28.6316 H   0  0  0  0  0  0  0  0  0  0  0  0
    8.8155   -0.8341   28.3070 H   0  0  0  0  0  0  0  0  0  0  0  0
    8.1114    0.5964   27.5579 H   0  0  0  0  0  0  0  0  0  0  0  0
    9.2184   -0.8550   25.8573 H   0  0  0  0  0  0  0  0  0  0  0  0
    8.1800   -2.1996   26.3128 H   0  0  0  0  0  0  0  0  0  0  0  0
    7.1709   -1.2365   24.3235 H   0  0  0  0  0  0  0  0  0  0  0  0
    7.4247    0.4059   24.9413 H   0  0  0  0  0  0  0  0  0  0  0  0
  1  2  1  0
  2  3  1  0
  2  4  1  0
  4  5  2  0
  4  6  1  0
  2  7  1  0
  7  8  1  0
  8  9  2  0
  9 10  1  0
 10 11  1  0
 11 12  1  0
 12 13  2  0
 12 14  1  0
 14 15  2  0
 15 16  1  0
 16 17  1  0
 17 18  2  0
 18 19  1  0
 19 20  1  0
 20 21  1  0
 21 22  1  0
 10 23  2  0
 23  7  1  0
 18 14  1  0
 22 17  1  0
  1 24  1  0
  1 25  1  0
  1 26  1  0
  3 27  1  0
  3 28  1  0
  3 29  1  0
  6 30  1  0
  8 31  1  0
  9 32  1  0
 11 33  1  0
 16 34  1  0
 19 35  1  0
 19 36  1  0
 20 37  1  0
 20 38  1  0
 21 39  1  0
 21 40  1  0
 22 41  1  0
 22 42  1  0
M  END
>  <Energy>  (343) 
12.231395902202291

>  <compound_id>  (343) 
46480

>  <target_id>  (343) 
1

>  <reference_id>  (343) 
7

>  <inspiration_ids>  (343) 
[122, 7]

>  <energy_score>  (343) 
-72.854338763991

>  <distance_score>  (343) 
13.38704776284413

>  <path>  (343) 
/opt/xchem-fragalysis-2/maxwin/BulkDock/SCRATCH/511023/C46480-P7/C46480-P7.minimised.mol

>  <scratch_subdir>  (343) 
/opt/xchem-fragalysis-2/maxwin/BulkDock/SCRATCH/511023/C46480-P7

>  <fragmenstein_runtime>  (343) 
11.134439945220947

>  <fragmenstein_outcome>  (343) 
too moved

>  <fragmenstein_mode>  (343) 
expansion

>  <fragmenstein_error>  (343) 


$$$$
C13492-P122
     RDKit          3D

 32 33  0  0  0  0  0  0  0  0999 V2000
   -1.6553    1.3294   31.3760 C   0  0  0  0  0  0  0  0  0  0  0  0
   -1.2571   -0.1077   31.7488 C   0  0  0  0  0  0  0  0  0  0  0  0
    0.0147   -0.0646   32.6181 C   0  0  0  0  0  0  0  0  0  0  0  0
   -2.3819   -0.7235   32.5811 C   0  0  0  0  0  0  0  0  0  0  0  0
   -3.5059   -0.2703   32.7425 O   0  0  0  0  0  0  0  0  0  0  0  0
   -2.0646   -1.9032   33.1612 O   0  0  0  0  0  0  0  0  0  0  0  0
   -1.0273   -0.8771   30.5148 N   0  0  0  0  0  0  0  0  0  0  0  0
   -1.7592   -1.8972   30.0060 C   0  0  0  0  0  0  0  0  0  0  0  0
   -1.0271   -2.2895   28.8930 C   0  0  0  0  0  0  0  0  0  0  0  0
    0.2130   -1.4792   28.7255 C   0  0  0  0  0  0  0  0  0  0  0  0
    1.3097   -1.6941   27.6234 N   0  0  0  0  0  0  0  0  0  0  0  0
    2.7256   -0.9055   27.3660 C   0  0  0  0  0  0  0  0  0  0  0  0
    3.2581   -0.0555   28.0075 O   0  0  0  0  0  0  0  0  0  0  0  0
    3.7211   -1.3391   26.0164 C   0  0  0  0  0  0  0  0  0  0  0  0
    5.0538   -0.8361   25.7554 C   0  0  0  0  0  0  0  0  0  0  0  0
    5.5943   -1.3725   24.5499 C   0  0  0  0  0  0  0  0  0  0  0  0
    4.7078   -2.1723   23.9739 N   0  0  0  0  0  0  0  0  0  0  0  0
    3.6089   -2.1046   24.8235 N   0  0  0  0  0  0  0  0  0  0  0  0
    0.1037   -0.5817   29.7465 N   0  0  0  0  0  0  0  0  0  0  0  0
   -1.8862    1.9247   32.2670 H   0  0  0  0  0  0  0  0  0  0  0  0
   -2.5443    1.3319   30.7376 H   0  0  0  0  0  0  0  0  0  0  0  0
   -0.8577    1.8435   30.8277 H   0  0  0  0  0  0  0  0  0  0  0  0
    0.8172    0.5056   32.1361 H   0  0  0  0  0  0  0  0  0  0  0  0
   -0.1866    0.4033   33.5890 H   0  0  0  0  0  0  0  0  0  0  0  0
    0.4033   -1.0714   32.8118 H   0  0  0  0  0  0  0  0  0  0  0  0
   -2.8838   -2.1859   33.6231 H   0  0  0  0  0  0  0  0  0  0  0  0
   -2.6565   -2.2945   30.4542 H   0  0  0  0  0  0  0  0  0  0  0  0
   -1.2669   -3.1212   28.2545 H   0  0  0  0  0  0  0  0  0  0  0  0
    1.1911   -2.4151   26.9291 H   0  0  0  0  0  0  0  0  0  0  0  0
    5.5528   -0.1504   26.4291 H   0  0  0  0  0  0  0  0  0  0  0  0
    6.5631   -1.2051   24.1004 H   0  0  0  0  0  0  0  0  0  0  0  0
    2.7620   -2.5770   24.5216 H   0  0  0  0  0  0  0  0  0  0  0  0
  1  2  1  0
  2  3  1  0
  2  4  1  0
  4  5  2  0
  4  6  1  0
  2  7  1  0
  7  8  1  0
  8  9  2  0
  9 10  1  0
 10 11  1  0
 11 12  1  0
 12 13  2  0
 12 14  1  0
 14 15  2  0
 15 16  1  0
 16 17  2  0
 17 18  1  0
 10 19  2  0
 19  7  1  0
 18 14  1  0
  1 20  1  0
  1 21  1  0
  1 22  1  0
  3 23  1  0
  3 24  1  0
  3 25  1  0
  6 26  1  0
  8 27  1  0
  9 28  1  0
 11 29  1  0
 15 30  1  0
 16 31  1  0
 18 32  1  0
M  END
>  <Energy>  (344) 
47.696406117971669

>  <compound_id>  (344) 
13492

>  <target_id>  (344) 
1

>  <reference_id>  (344) 
122

>  <inspiration_ids>  (344) 
[122, 7]

>  <energy_score>  (344) 
32.810992441040526

>  <distance_score>  (344) 
13.275819212654252

>  <path>  (344) 
/opt/xchem-fragalysis-2/maxwin/BulkDock/SCRATCH/511023/C13492-P122/C13492-P122.minimised.mol

>  <scratch_subdir>  (344) 
/opt/xchem-fragalysis-2/maxwin/BulkDock/SCRATCH/511023/C13492-P122

>  <fragmenstein_runtime>  (344) 
6.898425102233887

>  <fragmenstein_outcome>  (344) 
too moved

>  <fragmenstein_mode>  (344) 
expansion

>  <fragmenstein_error>  (344) 


$$$$
C13492-P7
     RDKit          3D

 32 33  0  0  0  0  0  0  0  0999 V2000
   -2.9981   -2.3080   32.9913 C   0  0  0  0  0  0  0  0  0  0  0  0
   -1.4592   -2.2830   32.8956 C   0  0  0  0  0  0  0  0  0  0  0  0
   -0.9397   -3.6966   33.2371 C   0  0  0  0  0  0  0  0  0  0  0  0
   -0.9274   -1.2995   33.9346 C   0  0  0  0  0  0  0  0  0  0  0  0
   -0.2483   -1.5631   34.9162 O   0  0  0  0  0  0  0  0  0  0  0  0
   -1.3123   -0.0186   33.7347 O   0  0  0  0  0  0  0  0  0  0  0  0
   -1.0031   -1.8649   31.5609 N   0  0  0  0  0  0  0  0  0  0  0  0
   -1.5923   -0.9538   30.7280 C   0  0  0  0  0  0  0  0  0  0  0  0
   -0.7410   -0.8197   29.6542 C   0  0  0  0  0  0  0  0  0  0  0  0
    0.3504   -1.6943   29.8988 C   0  0  0  0  0  0  0  0  0  0  0  0
    1.4774   -1.8818   29.1228 N   0  0  0  0  0  0  0  0  0  0  0  0
    1.9117   -1.2285   27.9146 C   0  0  0  0  0  0  0  0  0  0  0  0
    1.4455   -0.3030   27.3187 O   0  0  0  0  0  0  0  0  0  0  0  0
    3.1659   -1.7873   27.3508 C   0  0  0  0  0  0  0  0  0  0  0  0
    4.3924   -2.1302   27.8995 C   0  0  0  0  0  0  0  0  0  0  0  0
    5.2395   -2.4489   26.8116 C   0  0  0  0  0  0  0  0  0  0  0  0
    4.6136   -2.3528   25.6414 N   0  0  0  0  0  0  0  0  0  0  0  0
    3.3617   -1.9708   25.9889 N   0  0  0  0  0  0  0  0  0  0  0  0
    0.1581   -2.3568   31.0473 N   0  0  0  0  0  0  0  0  0  0  0  0
   -3.3292   -2.7267   33.9488 H   0  0  0  0  0  0  0  0  0  0  0  0
   -3.4355   -1.3053   32.9245 H   0  0  0  0  0  0  0  0  0  0  0  0
   -3.4355   -2.9059   32.1858 H   0  0  0  0  0  0  0  0  0  0  0  0
   -1.3501   -4.0532   34.1893 H   0  0  0  0  0  0  0  0  0  0  0  0
   -1.2076   -4.4193   32.4597 H   0  0  0  0  0  0  0  0  0  0  0  0
    0.1524   -3.7147   33.3384 H   0  0  0  0  0  0  0  0  0  0  0  0
   -0.8665    0.4797   34.4535 H   0  0  0  0  0  0  0  0  0  0  0  0
   -2.5194   -0.4555   30.9680 H   0  0  0  0  0  0  0  0  0  0  0  0
   -0.8714   -0.1635   28.8046 H   0  0  0  0  0  0  0  0  0  0  0  0
    2.1588   -2.5775   29.3842 H   0  0  0  0  0  0  0  0  0  0  0  0
    4.6643   -2.0966   28.9452 H   0  0  0  0  0  0  0  0  0  0  0  0
    6.2819   -2.7399   26.8324 H   0  0  0  0  0  0  0  0  0  0  0  0
    2.6502   -1.8991   25.2616 H   0  0  0  0  0  0  0  0  0  0  0  0
  1  2  1  0
  2  3  1  0
  2  4  1  0
  4  5  2  0
  4  6  1  0
  2  7  1  0
  7  8  1  0
  8  9  2  0
  9 10  1  0
 10 11  1  0
 11 12  1  0
 12 13  2  0
 12 14  1  0
 14 15  2  0
 15 16  1  0
 16 17  2  0
 17 18  1  0
 10 19  2  0
 19  7  1  0
 18 14  1  0
  1 20  1  0
  1 21  1  0
  1 22  1  0
  3 23  1  0
  3 24  1  0
  3 25  1  0
  6 26  1  0
  8 27  1  0
  9 28  1  0
 11 29  1  0
 15 30  1  0
 16 31  1  0
 18 32  1  0
M  END
>  <Energy>  (345) 
-42.142054149371525

>  <compound_id>  (345) 
13492

>  <target_id>  (345) 
1

>  <reference_id>  (345) 
7

>  <inspiration_ids>  (345) 
[122, 7]

>  <energy_score>  (345) 
-39.24759295251499

>  <distance_score>  (345) 
13.822065674914903

>  <path>  (345) 
/opt/xchem-fragalysis-2/maxwin/BulkDock/SCRATCH/511023/C13492-P7/C13492-P7.minimised.mol

>  <scratch_subdir>  (345) 
/opt/xchem-fragalysis-2/maxwin/BulkDock/SCRATCH/511023/C13492-P7

>  <fragmenstein_runtime>  (345) 
5.940181732177734

>  <fragmenstein_outcome>  (345) 
too moved

>  <fragmenstein_mode>  (345) 
expansion

>  <fragmenstein_error>  (345) 


$$$$
C46481-P122
     RDKit          3D

 40 42  0  0  0  0  0  0  0  0999 V2000
   -5.0934   -1.9693   33.2545 C   0  0  0  0  0  0  0  0  0  0  0  0
   -3.7732   -1.1801   33.1188 C   0  0  0  0  0  0  0  0  0  0  0  0
   -4.0838    0.3264   33.0828 C   0  0  0  0  0  0  0  0  0  0  0  0
   -2.9347   -1.5206   34.3508 C   0  0  0  0  0  0  0  0  0  0  0  0
   -1.9387   -2.2226   34.4147 O   0  0  0  0  0  0  0  0  0  0  0  0
   -3.4151   -0.9837   35.4984 O   0  0  0  0  0  0  0  0  0  0  0  0
   -3.0459   -1.5348   31.8865 N   0  0  0  0  0  0  0  0  0  0  0  0
   -1.7520   -1.1965   31.5487 C   0  0  0  0  0  0  0  0  0  0  0  0
   -1.4940   -1.7255   30.3019 C   0  0  0  0  0  0  0  0  0  0  0  0
   -0.3088   -1.6973   29.5815 N   0  0  0  0  0  0  0  0  0  0  0  0
    0.9629   -1.0789   29.8744 C   0  0  0  0  0  0  0  0  0  0  0  0
    1.3438   -0.4978   30.8514 O   0  0  0  0  0  0  0  0  0  0  0  0
    1.9248   -1.2473   28.7194 C   0  0  0  0  0  0  0  0  0  0  0  0
    1.6241   -1.9864   27.6302 N   0  0  0  0  0  0  0  0  0  0  0  0
    2.6819   -1.8269   26.7907 N   0  0  0  0  0  0  0  0  0  0  0  0
    3.6510   -1.0275   27.3084 C   0  0  0  0  0  0  0  0  0  0  0  0
    3.2292   -0.6669   28.5716 C   0  0  0  0  0  0  0  0  0  0  0  0
    3.9490    0.2111   29.5357 C   0  0  0  0  0  0  0  0  0  0  0  0
    5.6841    0.5357   29.0438 S   0  0  0  0  0  0  0  0  0  0  0  0
    5.4547    0.6617   27.2298 C   0  0  0  0  0  0  0  0  0  0  0  0
    4.8897   -0.6234   26.6045 C   0  0  0  0  0  0  0  0  0  0  0  0
   -2.7342   -2.3050   29.9403 C   0  0  0  0  0  0  0  0  0  0  0  0
   -3.6867   -2.1551   30.8670 N   0  0  0  0  0  0  0  0  0  0  0  0
   -5.6114   -1.7280   34.1901 H   0  0  0  0  0  0  0  0  0  0  0  0
   -5.7862   -1.7470   32.4345 H   0  0  0  0  0  0  0  0  0  0  0  0
   -4.9100   -3.0505   33.2575 H   0  0  0  0  0  0  0  0  0  0  0  0
   -4.7015    0.6337   33.9344 H   0  0  0  0  0  0  0  0  0  0  0  0
   -4.6234    0.5991   32.1682 H   0  0  0  0  0  0  0  0  0  0  0  0
   -3.1654    0.9243   33.1176 H   0  0  0  0  0  0  0  0  0  0  0  0
   -2.7835   -1.3037   36.1801 H   0  0  0  0  0  0  0  0  0  0  0  0
   -1.1132   -0.6561   32.2345 H   0  0  0  0  0  0  0  0  0  0  0  0
   -0.2474   -2.1722   28.6817 H   0  0  0  0  0  0  0  0  0  0  0  0
    2.6294   -2.2498   25.8626 H   0  0  0  0  0  0  0  0  0  0  0  0
    3.4347    1.1741   29.6188 H   0  0  0  0  0  0  0  0  0  0  0  0
    3.9735   -0.2485   30.5284 H   0  0  0  0  0  0  0  0  0  0  0  0
    6.4288    0.9006   26.7955 H   0  0  0  0  0  0  0  0  0  0  0  0
    4.7931    1.5129   27.0330 H   0  0  0  0  0  0  0  0  0  0  0  0
    5.6347   -1.4215   26.6635 H   0  0  0  0  0  0  0  0  0  0  0  0
    4.6487   -0.4528   25.5545 H   0  0  0  0  0  0  0  0  0  0  0  0
   -2.9830   -2.8266   29.0263 H   0  0  0  0  0  0  0  0  0  0  0  0
  1  2  1  0
  2  3  1  0
  2  4  1  0
  4  5  2  0
  4  6  1  0
  2  7  1  0
  7  8  1  0
  8  9  2  0
  9 10  1  0
 10 11  1  0
 11 12  2  0
 11 13  1  0
 13 14  2  0
 14 15  1  0
 15 16  1  0
 16 17  2  0
 17 18  1  0
 18 19  1  0
 19 20  1  0
 20 21  1  0
  9 22  1  0
 22 23  2  0
 23  7  1  0
 17 13  1  0
 21 16  1  0
  1 24  1  0
  1 25  1  0
  1 26  1  0
  3 27  1  0
  3 28  1  0
  3 29  1  0
  6 30  1  0
  8 31  1  0
 10 32  1  0
 15 33  1  0
 18 34  1  0
 18 35  1  0
 20 36  1  0
 20 37  1  0
 21 38  1  0
 21 39  1  0
 22 40  1  0
M  END
>  <Energy>  (346) 
53.677715830690481

>  <compound_id>  (346) 
46481

>  <target_id>  (346) 
1

>  <reference_id>  (346) 
122

>  <inspiration_ids>  (346) 
[122, 7]

>  <energy_score>  (346) 
-82.25580120605628

>  <distance_score>  (346) 
13.223891199494744

>  <path>  (346) 
/opt/xchem-fragalysis-2/maxwin/BulkDock/SCRATCH/511023/C46481-P122/C46481-P122.minimised.mol

>  <scratch_subdir>  (346) 
/opt/xchem-fragalysis-2/maxwin/BulkDock/SCRATCH/511023/C46481-P122

>  <fragmenstein_runtime>  (346) 
13.156556367874146

>  <fragmenstein_outcome>  (346) 
too moved

>  <fragmenstein_mode>  (346) 
expansion

>  <fragmenstein_error>  (346) 


$$$$
C46481-P7
     RDKit          3D

 40 42  0  0  0  0  0  0  0  0999 V2000
   -6.6110   -3.3054   28.0779 C   0  0  0  0  0  0  0  0  0  0  0  0
   -5.4739   -4.1398   27.4449 C   0  0  0  0  0  0  0  0  0  0  0  0
   -4.2419   -4.0168   28.3616 C   0  0  0  0  0  0  0  0  0  0  0  0
   -5.9638   -5.5844   27.3738 C   0  0  0  0  0  0  0  0  0  0  0  0
   -7.1227   -5.9592   27.2692 O   0  0  0  0  0  0  0  0  0  0  0  0
   -4.9814   -6.5105   27.4259 O   0  0  0  0  0  0  0  0  0  0  0  0
   -5.1301   -3.6673   26.0959 N   0  0  0  0  0  0  0  0  0  0  0  0
   -4.2688   -4.2588   25.1931 C   0  0  0  0  0  0  0  0  0  0  0  0
   -4.1035   -3.3904   24.1311 C   0  0  0  0  0  0  0  0  0  0  0  0
   -3.2642   -3.5171   23.0227 N   0  0  0  0  0  0  0  0  0  0  0  0
   -2.2897   -4.5346   22.6795 C   0  0  0  0  0  0  0  0  0  0  0  0
   -2.0132   -5.5681   23.2234 O   0  0  0  0  0  0  0  0  0  0  0  0
   -1.5077   -4.1879   21.4137 C   0  0  0  0  0  0  0  0  0  0  0  0
   -1.4727   -2.9496   20.8641 N   0  0  0  0  0  0  0  0  0  0  0  0
   -0.7169   -3.0873   19.7427 N   0  0  0  0  0  0  0  0  0  0  0  0
   -0.2770   -4.3551   19.5315 C   0  0  0  0  0  0  0  0  0  0  0  0
   -0.7114   -5.0923   20.6157 C   0  0  0  0  0  0  0  0  0  0  0  0
   -0.4702   -6.5450   20.8405 C   0  0  0  0  0  0  0  0  0  0  0  0
    0.0984   -7.4252   19.3319 S   0  0  0  0  0  0  0  0  0  0  0  0
    1.1850   -6.1386   18.6039 C   0  0  0  0  0  0  0  0  0  0  0  0
    0.4373   -4.8349   18.3113 C   0  0  0  0  0  0  0  0  0  0  0  0
   -4.9628   -2.3144   24.4761 C   0  0  0  0  0  0  0  0  0  0  0  0
   -5.5427   -2.4518   25.6738 N   0  0  0  0  0  0  0  0  0  0  0  0
   -6.3157   -2.2598   28.2245 H   0  0  0  0  0  0  0  0  0  0  0  0
   -6.8923   -3.7055   29.0567 H   0  0  0  0  0  0  0  0  0  0  0  0
   -7.5126   -3.3116   27.4534 H   0  0  0  0  0  0  0  0  0  0  0  0
   -3.9292   -2.9711   28.4657 H   0  0  0  0  0  0  0  0  0  0  0  0
   -4.4542   -4.4089   29.3631 H   0  0  0  0  0  0  0  0  0  0  0  0
   -3.3803   -4.5710   27.9713 H   0  0  0  0  0  0  0  0  0  0  0  0
   -5.4515   -7.3708   27.3589 H   0  0  0  0  0  0  0  0  0  0  0  0
   -3.8251   -5.2248   25.3919 H   0  0  0  0  0  0  0  0  0  0  0  0
   -3.1665   -2.7337   22.3796 H   0  0  0  0  0  0  0  0  0  0  0  0
   -0.5787   -2.2759   19.1464 H   0  0  0  0  0  0  0  0  0  0  0  0
    0.2791   -6.6810   21.6237 H   0  0  0  0  0  0  0  0  0  0  0  0
   -1.3893   -7.0420   21.1653 H   0  0  0  0  0  0  0  0  0  0  0  0
    1.6070   -6.5372   17.6758 H   0  0  0  0  0  0  0  0  0  0  0  0
    2.0165   -5.9646   19.2907 H   0  0  0  0  0  0  0  0  0  0  0  0
   -0.3044   -5.0095   17.5210 H   0  0  0  0  0  0  0  0  0  0  0  0
    1.1285   -4.0851   17.9189 H   0  0  0  0  0  0  0  0  0  0  0  0
   -5.1603   -1.4158   23.9062 H   0  0  0  0  0  0  0  0  0  0  0  0
  1  2  1  0
  2  3  1  0
  2  4  1  0
  4  5  2  0
  4  6  1  0
  2  7  1  0
  7  8  1  0
  8  9  2  0
  9 10  1  0
 10 11  1  0
 11 12  2  0
 11 13  1  0
 13 14  2  0
 14 15  1  0
 15 16  1  0
 16 17  2  0
 17 18  1  0
 18 19  1  0
 19 20  1  0
 20 21  1  0
  9 22  1  0
 22 23  2  0
 23  7  1  0
 17 13  1  0
 21 16  1  0
  1 24  1  0
  1 25  1  0
  1 26  1  0
  3 27  1  0
  3 28  1  0
  3 29  1  0
  6 30  1  0
  8 31  1  0
 10 32  1  0
 15 33  1  0
 18 34  1  0
 18 35  1  0
 20 36  1  0
 20 37  1  0
 21 38  1  0
 21 39  1  0
 22 40  1  0
M  END
>  <Energy>  (347) 
57.356829773400086

>  <compound_id>  (347) 
46481

>  <target_id>  (347) 
1

>  <reference_id>  (347) 
7

>  <inspiration_ids>  (347) 
[122, 7]

>  <energy_score>  (347) 
-78.57668726334771

>  <distance_score>  (347) 
14.244403403037847

>  <path>  (347) 
/opt/xchem-fragalysis-2/maxwin/BulkDock/SCRATCH/511023/C46481-P7/C46481-P7.minimised.mol

>  <scratch_subdir>  (347) 
/opt/xchem-fragalysis-2/maxwin/BulkDock/SCRATCH/511023/C46481-P7

>  <fragmenstein_runtime>  (347) 
16.65807557106018

>  <fragmenstein_outcome>  (347) 
too moved

>  <fragmenstein_mode>  (347) 
expansion

>  <fragmenstein_error>  (347) 


$$$$
C46482-P122
     RDKit          3D

 42 44  0  0  0  0  0  0  0  0999 V2000
   -3.4653   -0.4717   32.7353 C   0  0  0  0  0  0  0  0  0  0  0  0
   -4.2603   -0.6652   31.4311 C   0  0  0  0  0  0  0  0  0  0  0  0
   -5.7428   -0.3333   31.6774 C   0  0  0  0  0  0  0  0  0  0  0  0
   -4.2171   -2.1279   30.9880 C   0  0  0  0  0  0  0  0  0  0  0  0
   -4.1594   -2.5632   29.8478 O   0  0  0  0  0  0  0  0  0  0  0  0
   -4.3040   -3.0043   32.0157 O   0  0  0  0  0  0  0  0  0  0  0  0
   -3.6759    0.2191   30.4065 N   0  0  0  0  0  0  0  0  0  0  0  0
   -2.5317    0.0001   29.6340 C   0  0  0  0  0  0  0  0  0  0  0  0
   -2.1528    1.1521   28.9054 C   0  0  0  0  0  0  0  0  0  0  0  0
   -0.9768    1.3144   27.9474 N   0  0  0  0  0  0  0  0  0  0  0  0
   -0.4853    2.6086   27.0932 C   0  0  0  0  0  0  0  0  0  0  0  0
   -0.8901    3.7250   27.0929 O   0  0  0  0  0  0  0  0  0  0  0  0
    0.7714    2.4356   25.9193 C   0  0  0  0  0  0  0  0  0  0  0  0
    1.9725    1.7551   25.9089 N   0  0  0  0  0  0  0  0  0  0  0  0
    2.4941    1.9045   24.6154 N   0  0  0  0  0  0  0  0  0  0  0  0
    1.9332    2.9257   23.9019 C   0  0  0  0  0  0  0  0  0  0  0  0
    0.8011    3.2031   24.6461 C   0  0  0  0  0  0  0  0  0  0  0  0
   -0.2747    4.1156   24.1428 C   0  0  0  0  0  0  0  0  0  0  0  0
   -0.2719    4.1509   22.6085 C   0  0  0  0  0  0  0  0  0  0  0  0
    1.1290    4.4526   22.0695 C   0  0  0  0  0  0  0  0  0  0  0  0
    2.2074    3.4325   22.5115 C   0  0  0  0  0  0  0  0  0  0  0  0
   -3.2156    2.0314   29.4001 C   0  0  0  0  0  0  0  0  0  0  0  0
   -4.0957    1.4938   30.2785 N   0  0  0  0  0  0  0  0  0  0  0  0
   -3.4320    0.5836   33.0309 H   0  0  0  0  0  0  0  0  0  0  0  0
   -2.4303   -0.8164   32.6233 H   0  0  0  0  0  0  0  0  0  0  0  0
   -3.9076   -1.0304   33.5680 H   0  0  0  0  0  0  0  0  0  0  0  0
   -6.2116   -1.0553   32.3563 H   0  0  0  0  0  0  0  0  0  0  0  0
   -5.8618    0.6591   32.1236 H   0  0  0  0  0  0  0  0  0  0  0  0
   -6.3089   -0.3487   30.7398 H   0  0  0  0  0  0  0  0  0  0  0  0
   -4.2534   -3.8954   31.6076 H   0  0  0  0  0  0  0  0  0  0  0  0
   -2.0509   -0.9678   29.6608 H   0  0  0  0  0  0  0  0  0  0  0  0
   -0.3585    0.5299   27.7658 H   0  0  0  0  0  0  0  0  0  0  0  0
    3.1659    1.2101   24.2673 H   0  0  0  0  0  0  0  0  0  0  0  0
   -1.2595    3.7780   24.4828 H   0  0  0  0  0  0  0  0  0  0  0  0
   -0.1077    5.1227   24.5426 H   0  0  0  0  0  0  0  0  0  0  0  0
   -0.9774    4.9131   22.2590 H   0  0  0  0  0  0  0  0  0  0  0  0
   -0.6148    3.1876   22.2109 H   0  0  0  0  0  0  0  0  0  0  0  0
    1.4234    5.4512   22.4203 H   0  0  0  0  0  0  0  0  0  0  0  0
    1.1106    4.5062   20.9747 H   0  0  0  0  0  0  0  0  0  0  0  0
    3.1283    4.0136   22.5233 H   0  0  0  0  0  0  0  0  0  0  0  0
    2.1905    2.6024   21.8064 H   0  0  0  0  0  0  0  0  0  0  0  0
   -3.3445    3.0709   29.1229 H   0  0  0  0  0  0  0  0  0  0  0  0
  1  2  1  0
  2  3  1  0
  2  4  1  0
  4  5  2  0
  4  6  1  0
  2  7  1  0
  7  8  1  0
  8  9  2  0
  9 10  1  0
 10 11  1  0
 11 12  2  0
 11 13  1  0
 13 14  2  0
 14 15  1  0
 15 16  1  0
 16 17  2  0
 17 18  1  0
 18 19  1  0
 19 20  1  0
 20 21  1  0
  9 22  1  0
 22 23  2  0
 23  7  1  0
 17 13  1  0
 21 16  1  0
  1 24  1  0
  1 25  1  0
  1 26  1  0
  3 27  1  0
  3 28  1  0
  3 29  1  0
  6 30  1  0
  8 31  1  0
 10 32  1  0
 15 33  1  0
 18 34  1  0
 18 35  1  0
 19 36  1  0
 19 37  1  0
 20 38  1  0
 20 39  1  0
 21 40  1  0
 21 41  1  0
 22 42  1  0
M  END
>  <Energy>  (348) 
121.86823178757226

>  <compound_id>  (348) 
46482

>  <target_id>  (348) 
1

>  <reference_id>  (348) 
122

>  <inspiration_ids>  (348) 
[122, 7]

>  <energy_score>  (348) 
21.228432927972335

>  <distance_score>  (348) 
13.140043804992624

>  <path>  (348) 
/opt/xchem-fragalysis-2/maxwin/BulkDock/SCRATCH/511023/C46482-P122/C46482-P122.minimised.mol

>  <scratch_subdir>  (348) 
/opt/xchem-fragalysis-2/maxwin/BulkDock/SCRATCH/511023/C46482-P122

>  <fragmenstein_runtime>  (348) 
6.317330837249756

>  <fragmenstein_outcome>  (348) 
too moved

>  <fragmenstein_mode>  (348) 
expansion

>  <fragmenstein_error>  (348) 


$$$$
C46482-P7
     RDKit          3D

 42 44  0  0  0  0  0  0  0  0999 V2000
   -5.6062   -1.1196   29.7077 C   0  0  0  0  0  0  0  0  0  0  0  0
   -4.5955   -1.1619   30.8707 C   0  0  0  0  0  0  0  0  0  0  0  0
   -5.3038   -0.5944   32.1202 C   0  0  0  0  0  0  0  0  0  0  0  0
   -4.1986   -2.6203   31.1006 C   0  0  0  0  0  0  0  0  0  0  0  0
   -4.0142   -3.4574   30.2260 O   0  0  0  0  0  0  0  0  0  0  0  0
   -4.0357   -2.9736   32.3915 O   0  0  0  0  0  0  0  0  0  0  0  0
   -3.3980   -0.3963   30.5012 N   0  0  0  0  0  0  0  0  0  0  0  0
   -2.4920   -0.6773   29.4731 C   0  0  0  0  0  0  0  0  0  0  0  0
   -1.4821    0.3116   29.3690 C   0  0  0  0  0  0  0  0  0  0  0  0
   -0.3055    0.3452   28.3888 N   0  0  0  0  0  0  0  0  0  0  0  0
    0.8311    1.4900   28.1415 C   0  0  0  0  0  0  0  0  0  0  0  0
    1.0347    2.5069   28.7232 O   0  0  0  0  0  0  0  0  0  0  0  0
    1.8823    1.3699   26.7760 C   0  0  0  0  0  0  0  0  0  0  0  0
    2.8668    0.4576   26.4210 N   0  0  0  0  0  0  0  0  0  0  0  0
    3.3655    0.8625   25.1679 N   0  0  0  0  0  0  0  0  0  0  0  0
    2.8041    2.0423   24.7103 C   0  0  0  0  0  0  0  0  0  0  0  0
    1.9844    2.4322   25.7521 C   0  0  0  0  0  0  0  0  0  0  0  0
    1.1384    3.6705   25.7166 C   0  0  0  0  0  0  0  0  0  0  0  0
    1.4307    4.5413   24.4873 C   0  0  0  0  0  0  0  0  0  0  0  0
    1.6292    3.6924   23.2226 C   0  0  0  0  0  0  0  0  0  0  0  0
    2.8648    2.7567   23.3710 C   0  0  0  0  0  0  0  0  0  0  0  0
   -1.9721    1.1745   30.4488 C   0  0  0  0  0  0  0  0  0  0  0  0
   -3.0961    0.7733   31.0926 N   0  0  0  0  0  0  0  0  0  0  0  0
   -5.1757   -1.5009   28.7742 H   0  0  0  0  0  0  0  0  0  0  0  0
   -6.4828   -1.7383   29.9277 H   0  0  0  0  0  0  0  0  0  0  0  0
   -5.9479   -0.0962   29.5139 H   0  0  0  0  0  0  0  0  0  0  0  0
   -4.6285   -0.5432   32.9825 H   0  0  0  0  0  0  0  0  0  0  0  0
   -6.1564   -1.2207   32.4091 H   0  0  0  0  0  0  0  0  0  0  0  0
   -5.6836    0.4183   31.9412 H   0  0  0  0  0  0  0  0  0  0  0  0
   -3.7455   -3.9115   32.3779 H   0  0  0  0  0  0  0  0  0  0  0  0
   -2.6185   -1.5793   28.8902 H   0  0  0  0  0  0  0  0  0  0  0  0
   -0.2489   -0.3560   27.6580 H   0  0  0  0  0  0  0  0  0  0  0  0
    3.9601    0.2237   24.6368 H   0  0  0  0  0  0  0  0  0  0  0  0
    1.2931    4.2625   26.6252 H   0  0  0  0  0  0  0  0  0  0  0  0
    0.0836    3.3687   25.6961 H   0  0  0  0  0  0  0  0  0  0  0  0
    2.3360    5.1354   24.6668 H   0  0  0  0  0  0  0  0  0  0  0  0
    0.6101    5.2523   24.3387 H   0  0  0  0  0  0  0  0  0  0  0  0
    0.7104    3.1319   23.0274 H   0  0  0  0  0  0  0  0  0  0  0  0
    1.7838    4.3497   22.3586 H   0  0  0  0  0  0  0  0  0  0  0  0
    2.9072    2.0794   22.5255 H   0  0  0  0  0  0  0  0  0  0  0  0
    3.6643    3.4903   23.3652 H   0  0  0  0  0  0  0  0  0  0  0  0
   -1.5078    2.1015   30.7646 H   0  0  0  0  0  0  0  0  0  0  0  0
  1  2  1  0
  2  3  1  0
  2  4  1  0
  4  5  2  0
  4  6  1  0
  2  7  1  0
  7  8  1  0
  8  9  2  0
  9 10  1  0
 10 11  1  0
 11 12  2  0
 11 13  1  0
 13 14  2  0
 14 15  1  0
 15 16  1  0
 16 17  2  0
 17 18  1  0
 18 19  1  0
 19 20  1  0
 20 21  1  0
  9 22  1  0
 22 23  2  0
 23  7  1  0
 17 13  1  0
 21 16  1  0
  1 24  1  0
  1 25  1  0
  1 26  1  0
  3 27  1  0
  3 28  1  0
  3 29  1  0
  6 30  1  0
  8 31  1  0
 10 32  1  0
 15 33  1  0
 18 34  1  0
 18 35  1  0
 19 36  1  0
 19 37  1  0
 20 38  1  0
 20 39  1  0
 21 40  1  0
 21 41  1  0
 22 42  1  0
M  END
>  <Energy>  (349) 
128.19474282297324

>  <compound_id>  (349) 
46482

>  <target_id>  (349) 
1

>  <reference_id>  (349) 
7

>  <inspiration_ids>  (349) 
[122, 7]

>  <energy_score>  (349) 
27.554943963375763

>  <distance_score>  (349) 
13.000156239903973

>  <path>  (349) 
/opt/xchem-fragalysis-2/maxwin/BulkDock/SCRATCH/511023/C46482-P7/C46482-P7.minimised.mol

>  <scratch_subdir>  (349) 
/opt/xchem-fragalysis-2/maxwin/BulkDock/SCRATCH/511023/C46482-P7

>  <fragmenstein_runtime>  (349) 
10.445795774459839

>  <fragmenstein_outcome>  (349) 
too moved

>  <fragmenstein_mode>  (349) 
expansion

>  <fragmenstein_error>  (349) 


$$$$
C46483-P122
     RDKit          3D

 39 41  0  0  0  0  0  0  0  0999 V2000
   -5.8873    1.1689   30.1596 C   0  0  0  0  0  0  0  0  0  0  0  0
   -5.3482    0.6092   28.8341 C   0  0  0  0  0  0  0  0  0  0  0  0
   -6.3577    0.9611   27.7230 C   0  0  0  0  0  0  0  0  0  0  0  0
   -5.2526   -0.9210   28.9552 C   0  0  0  0  0  0  0  0  0  0  0  0
   -6.0409   -1.7017   28.4343 O   0  0  0  0  0  0  0  0  0  0  0  0
   -4.2292   -1.3826   29.7189 O   0  0  0  0  0  0  0  0  0  0  0  0
   -4.0102    1.1557   28.5663 N   0  0  0  0  0  0  0  0  0  0  0  0
   -3.5340    1.7697   27.4350 C   0  0  0  0  0  0  0  0  0  0  0  0
   -2.1708    1.9262   27.5854 C   0  0  0  0  0  0  0  0  0  0  0  0
   -1.2691    2.4365   26.6611 N   0  0  0  0  0  0  0  0  0  0  0  0
   -1.4601    2.8921   25.3041 C   0  0  0  0  0  0  0  0  0  0  0  0
   -2.4609    3.0196   24.6549 O   0  0  0  0  0  0  0  0  0  0  0  0
   -0.1462    3.1758   24.6182 C   0  0  0  0  0  0  0  0  0  0  0  0
    1.0635    2.7785   25.1049 N   0  0  0  0  0  0  0  0  0  0  0  0
    1.9432    2.9803   24.0708 N   0  0  0  0  0  0  0  0  0  0  0  0
    1.3685    3.6298   23.0381 C   0  0  0  0  0  0  0  0  0  0  0  0
    0.0439    3.7415   23.3375 C   0  0  0  0  0  0  0  0  0  0  0  0
   -0.7317    4.2693   22.1994 C   0  0  0  0  0  0  0  0  0  0  0  0
    0.4066    4.7400   21.2276 C   0  0  0  0  0  0  0  0  0  0  0  0
    1.7250    4.0046   21.6591 C   0  0  0  0  0  0  0  0  0  0  0  0
   -1.9312    1.4309   28.8912 C   0  0  0  0  0  0  0  0  0  0  0  0
   -3.0321    0.9551   29.4901 N   0  0  0  0  0  0  0  0  0  0  0  0
   -6.8901    0.7833   30.3685 H   0  0  0  0  0  0  0  0  0  0  0  0
   -5.9403    2.2633   30.1309 H   0  0  0  0  0  0  0  0  0  0  0  0
   -5.2588    0.8907   31.0136 H   0  0  0  0  0  0  0  0  0  0  0  0
   -6.0641    0.5266   26.7600 H   0  0  0  0  0  0  0  0  0  0  0  0
   -6.4492    2.0456   27.5922 H   0  0  0  0  0  0  0  0  0  0  0  0
   -7.3568    0.5732   27.9557 H   0  0  0  0  0  0  0  0  0  0  0  0
   -3.6112   -0.6581   29.9991 H   0  0  0  0  0  0  0  0  0  0  0  0
   -4.1770    2.0142   26.6004 H   0  0  0  0  0  0  0  0  0  0  0  0
   -0.2686    2.3784   26.8543 H   0  0  0  0  0  0  0  0  0  0  0  0
    2.8480    2.5226   24.1083 H   0  0  0  0  0  0  0  0  0  0  0  0
   -1.3842    5.1014   22.4762 H   0  0  0  0  0  0  0  0  0  0  0  0
   -1.3259    3.4764   21.7335 H   0  0  0  0  0  0  0  0  0  0  0  0
    0.1561    4.5558   20.1781 H   0  0  0  0  0  0  0  0  0  0  0  0
    0.5488    5.8224   21.3465 H   0  0  0  0  0  0  0  0  0  0  0  0
    2.5811    4.6797   21.6007 H   0  0  0  0  0  0  0  0  0  0  0  0
    1.8725    3.1234   21.0316 H   0  0  0  0  0  0  0  0  0  0  0  0
   -0.9875    1.3821   29.4210 H   0  0  0  0  0  0  0  0  0  0  0  0
  1  2  1  0
  2  3  1  0
  2  4  1  0
  4  5  2  0
  4  6  1  0
  2  7  1  0
  7  8  1  0
  8  9  2  0
  9 10  1  0
 10 11  1  0
 11 12  2  0
 11 13  1  0
 13 14  2  0
 14 15  1  0
 15 16  1  0
 16 17  2  0
 17 18  1  0
 18 19  1  0
 19 20  1  0
  9 21  1  0
 21 22  2  0
 22  7  1  0
 17 13  1  0
 20 16  1  0
  1 23  1  0
  1 24  1  0
  1 25  1  0
  3 26  1  0
  3 27  1  0
  3 28  1  0
  6 29  1  0
  8 30  1  0
 10 31  1  0
 15 32  1  0
 18 33  1  0
 18 34  1  0
 19 35  1  0
 19 36  1  0
 20 37  1  0
 20 38  1  0
 21 39  1  0
M  END
>  <Energy>  (350) 
64.582221327360656

>  <compound_id>  (350) 
46483

>  <target_id>  (350) 
1

>  <reference_id>  (350) 
122

>  <inspiration_ids>  (350) 
[122, 7]

>  <energy_score>  (350) 
-27.929327296371127

>  <distance_score>  (350) 
13.853362331314807

>  <path>  (350) 
/opt/xchem-fragalysis-2/maxwin/BulkDock/SCRATCH/511023/C46483-P122/C46483-P122.minimised.mol

>  <scratch_subdir>  (350) 
/opt/xchem-fragalysis-2/maxwin/BulkDock/SCRATCH/511023/C46483-P122

>  <fragmenstein_runtime>  (350) 
13.92504096031189

>  <fragmenstein_outcome>  (350) 
too moved

>  <fragmenstein_mode>  (350) 
expansion

>  <fragmenstein_error>  (350) 


$$$$
C46483-P7
     RDKit          3D

 39 41  0  0  0  0  0  0  0  0999 V2000
   -0.4740    5.2144   25.6055 C   0  0  0  0  0  0  0  0  0  0  0  0
   -0.6468    4.1539   24.5028 C   0  0  0  0  0  0  0  0  0  0  0  0
   -1.2715    4.8471   23.2748 C   0  0  0  0  0  0  0  0  0  0  0  0
   -1.6144    3.0715   25.0020 C   0  0  0  0  0  0  0  0  0  0  0  0
   -2.7300    2.8681   24.5340 O   0  0  0  0  0  0  0  0  0  0  0  0
   -1.1548    2.3089   26.0265 O   0  0  0  0  0  0  0  0  0  0  0  0
    0.6396    3.5174   24.1973 N   0  0  0  0  0  0  0  0  0  0  0  0
    1.2930    3.4306   22.9894 C   0  0  0  0  0  0  0  0  0  0  0  0
    2.3580    2.5586   23.1449 C   0  0  0  0  0  0  0  0  0  0  0  0
    3.2509    2.1204   22.1500 N   0  0  0  0  0  0  0  0  0  0  0  0
    4.5744    0.9846   22.2069 C   0  0  0  0  0  0  0  0  0  0  0  0
    4.7894    0.3661   23.1712 O   0  0  0  0  0  0  0  0  0  0  0  0
    5.8049    0.8772   20.6943 C   0  0  0  0  0  0  0  0  0  0  0  0
    6.6708   -0.1604   20.3957 N   0  0  0  0  0  0  0  0  0  0  0  0
    7.1586   -0.0354   19.1933 N   0  0  0  0  0  0  0  0  0  0  0  0
    6.8426    1.0651   18.5410 C   0  0  0  0  0  0  0  0  0  0  0  0
    6.0094    1.7371   19.3582 C   0  0  0  0  0  0  0  0  0  0  0  0
    5.5467    2.9609   18.6016 C   0  0  0  0  0  0  0  0  0  0  0  0
    6.0442    2.6800   17.1384 C   0  0  0  0  0  0  0  0  0  0  0  0
    7.2463    1.7168   17.2962 C   0  0  0  0  0  0  0  0  0  0  0  0
    2.3445    2.3109   24.5589 C   0  0  0  0  0  0  0  0  0  0  0  0
    1.2918    2.8603   25.1925 N   0  0  0  0  0  0  0  0  0  0  0  0
   -1.4324    5.6864   25.8516 H   0  0  0  0  0  0  0  0  0  0  0  0
   -0.0844    4.7856   26.5359 H   0  0  0  0  0  0  0  0  0  0  0  0
    0.2221    6.0005   25.2910 H   0  0  0  0  0  0  0  0  0  0  0  0
   -0.6186    5.6356   22.8829 H   0  0  0  0  0  0  0  0  0  0  0  0
   -1.4655    4.1341   22.4644 H   0  0  0  0  0  0  0  0  0  0  0  0
   -2.2321    5.3118   23.5277 H   0  0  0  0  0  0  0  0  0  0  0  0
   -0.1772    2.4286   26.1708 H   0  0  0  0  0  0  0  0  0  0  0  0
    0.9170    3.9094   22.0964 H   0  0  0  0  0  0  0  0  0  0  0  0
    3.1815    2.4888   21.2051 H   0  0  0  0  0  0  0  0  0  0  0  0
    7.9010   -0.6730   18.9992 H   0  0  0  0  0  0  0  0  0  0  0  0
    4.4611    3.0961   18.5933 H   0  0  0  0  0  0  0  0  0  0  0  0
    6.0409    3.8594   18.9878 H   0  0  0  0  0  0  0  0  0  0  0  0
    5.2346    2.1833   16.5887 H   0  0  0  0  0  0  0  0  0  0  0  0
    6.3029    3.5979   16.6023 H   0  0  0  0  0  0  0  0  0  0  0  0
    8.1555    2.3137   17.4220 H   0  0  0  0  0  0  0  0  0  0  0  0
    7.4270    1.0040   16.5006 H   0  0  0  0  0  0  0  0  0  0  0  0
    3.0372    1.6889   25.1158 H   0  0  0  0  0  0  0  0  0  0  0  0
  1  2  1  0
  2  3  1  0
  2  4  1  0
  4  5  2  0
  4  6  1  0
  2  7  1  0
  7  8  1  0
  8  9  2  0
  9 10  1  0
 10 11  1  0
 11 12  2  0
 11 13  1  0
 13 14  2  0
 14 15  1  0
 15 16  1  0
 16 17  2  0
 17 18  1  0
 18 19  1  0
 19 20  1  0
  9 21  1  0
 21 22  2  0
 22  7  1  0
 17 13  1  0
 20 16  1  0
  1 23  1  0
  1 24  1  0
  1 25  1  0
  3 26  1  0
  3 27  1  0
  3 28  1  0
  6 29  1  0
  8 30  1  0
 10 31  1  0
 15 32  1  0
 18 33  1  0
 18 34  1  0
 19 35  1  0
 19 36  1  0
 20 37  1  0
 20 38  1  0
 21 39  1  0
M  END
>  <Energy>  (351) 
194.82719270858016

>  <compound_id>  (351) 
46483

>  <target_id>  (351) 
1

>  <reference_id>  (351) 
7

>  <inspiration_ids>  (351) 
[122, 7]

>  <energy_score>  (351) 
102.31564408485133

>  <distance_score>  (351) 
15.724420029371121

>  <path>  (351) 
/opt/xchem-fragalysis-2/maxwin/BulkDock/SCRATCH/511023/C46483-P7/C46483-P7.minimised.mol

>  <scratch_subdir>  (351) 
/opt/xchem-fragalysis-2/maxwin/BulkDock/SCRATCH/511023/C46483-P7

>  <fragmenstein_runtime>  (351) 
9.697534322738647

>  <fragmenstein_outcome>  (351) 
too moved

>  <fragmenstein_mode>  (351) 
expansion

>  <fragmenstein_error>  (351) 


$$$$
C13493-P122
     RDKit          3D

 32 33  0  0  0  0  0  0  0  0999 V2000
   -3.8749   -3.5716   31.1339 C   0  0  0  0  0  0  0  0  0  0  0  0
   -3.1750   -2.5774   32.0830 C   0  0  0  0  0  0  0  0  0  0  0  0
   -2.3876   -3.3492   33.1556 C   0  0  0  0  0  0  0  0  0  0  0  0
   -4.2855   -1.8041   32.8221 C   0  0  0  0  0  0  0  0  0  0  0  0
   -5.3055   -2.3503   33.2380 O   0  0  0  0  0  0  0  0  0  0  0  0
   -4.0858   -0.4913   33.0676 O   0  0  0  0  0  0  0  0  0  0  0  0
   -2.2252   -1.7336   31.3230 N   0  0  0  0  0  0  0  0  0  0  0  0
   -1.3245   -2.1495   30.3616 C   0  0  0  0  0  0  0  0  0  0  0  0
   -0.4585   -1.1040   30.1125 C   0  0  0  0  0  0  0  0  0  0  0  0
    0.6360   -1.1320   29.2591 N   0  0  0  0  0  0  0  0  0  0  0  0
    1.6581   -0.1399   28.9923 C   0  0  0  0  0  0  0  0  0  0  0  0
    1.8619    0.9259   29.4990 O   0  0  0  0  0  0  0  0  0  0  0  0
    2.6039   -0.5337   27.9216 C   0  0  0  0  0  0  0  0  0  0  0  0
    2.7063   -1.5888   27.0299 C   0  0  0  0  0  0  0  0  0  0  0  0
    3.7479   -1.2577   26.1334 C   0  0  0  0  0  0  0  0  0  0  0  0
    4.4100   -0.1739   26.5313 N   0  0  0  0  0  0  0  0  0  0  0  0
    3.6831    0.2627   27.5778 N   0  0  0  0  0  0  0  0  0  0  0  0
   -0.9523   -0.0716   30.9471 C   0  0  0  0  0  0  0  0  0  0  0  0
   -2.0195   -0.4393   31.6730 N   0  0  0  0  0  0  0  0  0  0  0  0
   -4.5791   -4.2128   31.6750 H   0  0  0  0  0  0  0  0  0  0  0  0
   -4.4394   -3.0422   30.3572 H   0  0  0  0  0  0  0  0  0  0  0  0
   -3.1665   -4.2426   30.6371 H   0  0  0  0  0  0  0  0  0  0  0  0
   -1.6116   -3.9822   32.7103 H   0  0  0  0  0  0  0  0  0  0  0  0
   -1.8942   -2.6624   33.8539 H   0  0  0  0  0  0  0  0  0  0  0  0
   -3.0456   -3.9955   33.7467 H   0  0  0  0  0  0  0  0  0  0  0  0
   -3.2435   -0.1531   32.6635 H   0  0  0  0  0  0  0  0  0  0  0  0
   -1.3322   -3.1620   29.9855 H   0  0  0  0  0  0  0  0  0  0  0  0
    0.8163   -1.9511   28.6957 H   0  0  0  0  0  0  0  0  0  0  0  0
    2.0531   -2.4420   26.9491 H   0  0  0  0  0  0  0  0  0  0  0  0
    4.0354   -1.7673   25.2219 H   0  0  0  0  0  0  0  0  0  0  0  0
    3.9454    1.1342   28.0279 H   0  0  0  0  0  0  0  0  0  0  0  0
   -0.5596    0.9325   31.0596 H   0  0  0  0  0  0  0  0  0  0  0  0
  1  2  1  0
  2  3  1  0
  2  4  1  0
  4  5  2  0
  4  6  1  0
  2  7  1  0
  7  8  1  0
  8  9  2  0
  9 10  1  0
 10 11  1  0
 11 12  2  0
 11 13  1  0
 13 14  2  0
 14 15  1  0
 15 16  2  0
 16 17  1  0
  9 18  1  0
 18 19  2  0
 19  7  1  0
 17 13  1  0
  1 20  1  0
  1 21  1  0
  1 22  1  0
  3 23  1  0
  3 24  1  0
  3 25  1  0
  6 26  1  0
  8 27  1  0
 10 28  1  0
 14 29  1  0
 15 30  1  0
 17 31  1  0
 18 32  1  0
M  END
>  <Energy>  (352) 
-10.999780913721816

>  <compound_id>  (352) 
13493

>  <target_id>  (352) 
1

>  <reference_id>  (352) 
122

>  <inspiration_ids>  (352) 
[122, 7]

>  <energy_score>  (352) 
-58.531804682227175

>  <distance_score>  (352) 
13.23487807827189

>  <path>  (352) 
/opt/xchem-fragalysis-2/maxwin/BulkDock/SCRATCH/511023/C13493-P122/C13493-P122.minimised.mol

>  <scratch_subdir>  (352) 
/opt/xchem-fragalysis-2/maxwin/BulkDock/SCRATCH/511023/C13493-P122

>  <fragmenstein_runtime>  (352) 
10.017305850982666

>  <fragmenstein_outcome>  (352) 
too moved

>  <fragmenstein_mode>  (352) 
expansion

>  <fragmenstein_error>  (352) 


$$$$
C13493-P7
     RDKit          3D

 32 33  0  0  0  0  0  0  0  0999 V2000
   -2.5036    1.4081   32.5000 C   0  0  0  0  0  0  0  0  0  0  0  0
   -3.3525    0.3239   31.8034 C   0  0  0  0  0  0  0  0  0  0  0  0
   -4.4509    1.0014   30.9682 C   0  0  0  0  0  0  0  0  0  0  0  0
   -4.0583   -0.4908   32.9064 C   0  0  0  0  0  0  0  0  0  0  0  0
   -4.4068   -0.0031   33.9782 O   0  0  0  0  0  0  0  0  0  0  0  0
   -4.3609   -1.7794   32.6245 O   0  0  0  0  0  0  0  0  0  0  0  0
   -2.5250   -0.5098   30.9100 N   0  0  0  0  0  0  0  0  0  0  0  0
   -1.3358   -0.1627   30.2449 C   0  0  0  0  0  0  0  0  0  0  0  0
   -0.8794   -1.1878   29.3934 C   0  0  0  0  0  0  0  0  0  0  0  0
    0.3391   -1.3821   28.4651 N   0  0  0  0  0  0  0  0  0  0  0  0
    1.5885   -0.3817   28.1362 C   0  0  0  0  0  0  0  0  0  0  0  0
    1.8665    0.6771   28.6013 O   0  0  0  0  0  0  0  0  0  0  0  0
    2.7405   -0.8338   27.0120 C   0  0  0  0  0  0  0  0  0  0  0  0
    3.1124   -1.9397   26.2211 C   0  0  0  0  0  0  0  0  0  0  0  0
    4.1059   -1.5779   25.2628 C   0  0  0  0  0  0  0  0  0  0  0  0
    4.6483   -0.4255   25.6058 N   0  0  0  0  0  0  0  0  0  0  0  0
    3.7801    0.0391   26.5503 N   0  0  0  0  0  0  0  0  0  0  0  0
   -1.9971   -2.1242   29.6612 C   0  0  0  0  0  0  0  0  0  0  0  0
   -2.9647   -1.7270   30.5170 N   0  0  0  0  0  0  0  0  0  0  0  0
   -3.1021    2.0033   33.1997 H   0  0  0  0  0  0  0  0  0  0  0  0
   -2.0713    2.1139   31.7823 H   0  0  0  0  0  0  0  0  0  0  0  0
   -1.6832    0.9590   33.0723 H   0  0  0  0  0  0  0  0  0  0  0  0
   -5.1093    0.2617   30.4971 H   0  0  0  0  0  0  0  0  0  0  0  0
   -5.0820    1.6450   31.5911 H   0  0  0  0  0  0  0  0  0  0  0  0
   -4.0232    1.6189   30.1699 H   0  0  0  0  0  0  0  0  0  0  0  0
   -3.9968   -2.0696   31.7479 H   0  0  0  0  0  0  0  0  0  0  0  0
   -0.8777    0.7994   30.4278 H   0  0  0  0  0  0  0  0  0  0  0  0
    0.4463   -2.2448   27.9447 H   0  0  0  0  0  0  0  0  0  0  0  0
    2.6070   -2.8847   26.2692 H   0  0  0  0  0  0  0  0  0  0  0  0
    4.4676   -2.1160   24.4054 H   0  0  0  0  0  0  0  0  0  0  0  0
    3.9118    0.9808   26.8986 H   0  0  0  0  0  0  0  0  0  0  0  0
   -2.0946   -3.1064   29.2144 H   0  0  0  0  0  0  0  0  0  0  0  0
  1  2  1  0
  2  3  1  0
  2  4  1  0
  4  5  2  0
  4  6  1  0
  2  7  1  0
  7  8  1  0
  8  9  2  0
  9 10  1  0
 10 11  1  0
 11 12  2  0
 11 13  1  0
 13 14  2  0
 14 15  1  0
 15 16  2  0
 16 17  1  0
  9 18  1  0
 18 19  2  0
 19  7  1  0
 17 13  1  0
  1 20  1  0
  1 21  1  0
  1 22  1  0
  3 23  1  0
  3 24  1  0
  3 25  1  0
  6 26  1  0
  8 27  1  0
 10 28  1  0
 14 29  1  0
 15 30  1  0
 17 31  1  0
 18 32  1  0
M  END
>  <Energy>  (353) 
55.507282700433294

>  <compound_id>  (353) 
13493

>  <target_id>  (353) 
1

>  <reference_id>  (353) 
7

>  <inspiration_ids>  (353) 
[122, 7]

>  <energy_score>  (353) 
24.74721061093956

>  <distance_score>  (353) 
12.893219398947636

>  <path>  (353) 
/opt/xchem-fragalysis-2/maxwin/BulkDock/SCRATCH/511023/C13493-P7/C13493-P7.minimised.mol

>  <scratch_subdir>  (353) 
/opt/xchem-fragalysis-2/maxwin/BulkDock/SCRATCH/511023/C13493-P7

>  <fragmenstein_runtime>  (353) 
5.235361814498901

>  <fragmenstein_outcome>  (353) 
too moved

>  <fragmenstein_mode>  (353) 
expansion

>  <fragmenstein_error>  (353) 


$$$$
C13494-P122
     RDKit          3D

 38 39  0  0  0  0  0  0  0  0999 V2000
    1.3933   -2.9201   32.6131 C   0  0  0  0  0  0  0  0  0  0  0  0
    0.1001   -2.2202   32.1370 C   0  0  0  0  0  0  0  0  0  0  0  0
    0.0160   -0.8165   32.7603 C   0  0  0  0  0  0  0  0  0  0  0  0
   -1.0924   -3.0508   32.6423 C   0  0  0  0  0  0  0  0  0  0  0  0
   -2.0473   -3.4833   32.0114 O   0  0  0  0  0  0  0  0  0  0  0  0
   -1.0538   -3.2753   33.9791 O   0  0  0  0  0  0  0  0  0  0  0  0
    0.0888   -2.0761   30.6649 N   0  0  0  0  0  0  0  0  0  0  0  0
   -0.9787   -1.8029   29.8571 C   0  0  0  0  0  0  0  0  0  0  0  0
   -0.4621   -1.7212   28.5836 C   0  0  0  0  0  0  0  0  0  0  0  0
    0.9547   -1.8783   28.6932 C   0  0  0  0  0  0  0  0  0  0  0  0
    1.8389   -1.8504   27.6146 N   0  0  0  0  0  0  0  0  0  0  0  0
    3.3041   -1.8169   27.5733 C   0  0  0  0  0  0  0  0  0  0  0  0
    4.1113   -1.7254   28.4589 O   0  0  0  0  0  0  0  0  0  0  0  0
    3.7938   -1.8622   26.0752 C   0  0  0  0  0  0  0  0  0  0  0  0
    5.3275   -1.7588   25.8409 C   0  0  0  0  0  0  0  0  0  0  0  0
    5.8517   -2.2003   24.4961 C   0  0  0  0  0  0  0  0  0  0  0  0
    5.2746   -2.7952   23.3954 C   0  0  0  0  0  0  0  0  0  0  0  0
    6.3388   -3.0640   22.5174 C   0  0  0  0  0  0  0  0  0  0  0  0
    7.5100   -2.6254   22.9837 N   0  0  0  0  0  0  0  0  0  0  0  0
    7.1840   -2.0896   24.1758 N   0  0  0  0  0  0  0  0  0  0  0  0
    1.2675   -2.0453   29.9827 N   0  0  0  0  0  0  0  0  0  0  0  0
    1.4801   -3.9226   32.1771 H   0  0  0  0  0  0  0  0  0  0  0  0
    1.4178   -3.0363   33.7027 H   0  0  0  0  0  0  0  0  0  0  0  0
    2.2900   -2.3531   32.3376 H   0  0  0  0  0  0  0  0  0  0  0  0
    0.0736   -0.8569   33.8540 H   0  0  0  0  0  0  0  0  0  0  0  0
    0.8306   -0.1736   32.4070 H   0  0  0  0  0  0  0  0  0  0  0  0
   -0.9297   -0.3237   32.5049 H   0  0  0  0  0  0  0  0  0  0  0  0
   -1.8174   -3.8573   34.1900 H   0  0  0  0  0  0  0  0  0  0  0  0
   -1.9888   -1.7149   30.2270 H   0  0  0  0  0  0  0  0  0  0  0  0
   -1.0346   -1.5449   27.6877 H   0  0  0  0  0  0  0  0  0  0  0  0
    1.4804   -1.8514   26.6676 H   0  0  0  0  0  0  0  0  0  0  0  0
    3.4340   -2.7998   25.6504 H   0  0  0  0  0  0  0  0  0  0  0  0
    3.3101   -1.0388   25.5417 H   0  0  0  0  0  0  0  0  0  0  0  0
    5.6345   -0.7207   26.0208 H   0  0  0  0  0  0  0  0  0  0  0  0
    5.8355   -2.3655   26.6021 H   0  0  0  0  0  0  0  0  0  0  0  0
    4.2293   -3.0436   23.2660 H   0  0  0  0  0  0  0  0  0  0  0  0
    6.2908   -3.5758   21.5676 H   0  0  0  0  0  0  0  0  0  0  0  0
    7.9227   -1.6925   24.7470 H   0  0  0  0  0  0  0  0  0  0  0  0
  1  2  1  0
  2  3  1  0
  2  4  1  0
  4  5  2  0
  4  6  1  0
  2  7  1  0
  7  8  1  0
  8  9  2  0
  9 10  1  0
 10 11  1  0
 11 12  1  0
 12 13  2  0
 12 14  1  0
 14 15  1  0
 15 16  1  0
 16 17  2  0
 17 18  1  0
 18 19  2  0
 19 20  1  0
 10 21  2  0
 21  7  1  0
 20 16  1  0
  1 22  1  0
  1 23  1  0
  1 24  1  0
  3 25  1  0
  3 26  1  0
  3 27  1  0
  6 28  1  0
  8 29  1  0
  9 30  1  0
 11 31  1  0
 14 32  1  0
 14 33  1  0
 15 34  1  0
 15 35  1  0
 17 36  1  0
 18 37  1  0
 20 38  1  0
M  END
>  <Energy>  (354) 
-17.317165157264554

>  <compound_id>  (354) 
13494

>  <target_id>  (354) 
1

>  <reference_id>  (354) 
122

>  <inspiration_ids>  (354) 
[122, 7]

>  <energy_score>  (354) 
-49.03390259132783

>  <distance_score>  (354) 
12.819732822210096

>  <path>  (354) 
/opt/xchem-fragalysis-2/maxwin/BulkDock/SCRATCH/511023/C13494-P122/C13494-P122.minimised.mol

>  <scratch_subdir>  (354) 
/opt/xchem-fragalysis-2/maxwin/BulkDock/SCRATCH/511023/C13494-P122

>  <fragmenstein_runtime>  (354) 
23.41520667076111

>  <fragmenstein_outcome>  (354) 
too moved

>  <fragmenstein_mode>  (354) 
expansion

>  <fragmenstein_error>  (354) 


$$$$
C13494-P7
     RDKit          3D

 38 39  0  0  0  0  0  0  0  0999 V2000
   -3.1138   -1.4692   32.6045 C   0  0  0  0  0  0  0  0  0  0  0  0
   -1.7265   -1.2377   31.9793 C   0  0  0  0  0  0  0  0  0  0  0  0
   -0.8602   -2.4853   32.2587 C   0  0  0  0  0  0  0  0  0  0  0  0
   -1.0090   -0.0549   32.6289 C   0  0  0  0  0  0  0  0  0  0  0  0
    0.1944    0.1553   32.6342 O   0  0  0  0  0  0  0  0  0  0  0  0
   -1.8220    0.8432   33.2297 O   0  0  0  0  0  0  0  0  0  0  0  0
   -1.8858   -0.9918   30.5396 N   0  0  0  0  0  0  0  0  0  0  0  0
   -2.1510    0.1945   29.9199 C   0  0  0  0  0  0  0  0  0  0  0  0
   -2.2738   -0.0791   28.5745 C   0  0  0  0  0  0  0  0  0  0  0  0
   -2.1276   -1.4677   28.4688 C   0  0  0  0  0  0  0  0  0  0  0  0
   -2.0887   -2.2620   27.3632 N   0  0  0  0  0  0  0  0  0  0  0  0
   -3.1483   -2.4781   26.2166 C   0  0  0  0  0  0  0  0  0  0  0  0
   -4.1841   -1.9345   26.0211 O   0  0  0  0  0  0  0  0  0  0  0  0
   -2.7246   -3.7363   24.7266 C   0  0  0  0  0  0  0  0  0  0  0  0
   -1.6855   -5.4475   24.4229 C   0  0  0  0  0  0  0  0  0  0  0  0
   -0.1220   -6.2628   23.8384 C   0  0  0  0  0  0  0  0  0  0  0  0
    0.0925   -7.6387   23.6943 C   0  0  0  0  0  0  0  0  0  0  0  0
    1.2328   -7.7936   22.8629 C   0  0  0  0  0  0  0  0  0  0  0  0
    1.7298   -6.6325   22.4490 N   0  0  0  0  0  0  0  0  0  0  0  0
    0.9169   -5.7237   23.0222 N   0  0  0  0  0  0  0  0  0  0  0  0
   -1.8284   -2.0122   29.6610 N   0  0  0  0  0  0  0  0  0  0  0  0
   -3.0396   -1.6353   33.6854 H   0  0  0  0  0  0  0  0  0  0  0  0
   -3.6097   -2.3407   32.1618 H   0  0  0  0  0  0  0  0  0  0  0  0
   -3.7769   -0.6101   32.4505 H   0  0  0  0  0  0  0  0  0  0  0  0
   -0.6765   -2.6047   33.3332 H   0  0  0  0  0  0  0  0  0  0  0  0
   -1.3415   -3.4034   31.9021 H   0  0  0  0  0  0  0  0  0  0  0  0
    0.1172   -2.4127   31.7663 H   0  0  0  0  0  0  0  0  0  0  0  0
   -1.1946    1.5058   33.5966 H   0  0  0  0  0  0  0  0  0  0  0  0
   -2.2082    1.1172   30.4644 H   0  0  0  0  0  0  0  0  0  0  0  0
   -2.4339    0.6304   27.7754 H   0  0  0  0  0  0  0  0  0  0  0  0
   -1.3630   -2.9467   27.2828 H   0  0  0  0  0  0  0  0  0  0  0  0
   -3.5334   -3.7563   24.0472 H   0  0  0  0  0  0  0  0  0  0  0  0
   -2.4153   -2.9610   23.9922 H   0  0  0  0  0  0  0  0  0  0  0  0
   -1.5257   -5.9115   25.4222 H   0  0  0  0  0  0  0  0  0  0  0  0
   -1.0725   -4.7787   23.8714 H   0  0  0  0  0  0  0  0  0  0  0  0
   -0.5233   -8.4242   24.1064 H   0  0  0  0  0  0  0  0  0  0  0  0
    1.6999   -8.7130   22.5380 H   0  0  0  0  0  0  0  0  0  0  0  0
    1.0977   -4.7478   22.8032 H   0  0  0  0  0  0  0  0  0  0  0  0
  1  2  1  0
  2  3  1  0
  2  4  1  0
  4  5  2  0
  4  6  1  0
  2  7  1  0
  7  8  1  0
  8  9  2  0
  9 10  1  0
 10 11  1  0
 11 12  1  0
 12 13  2  0
 12 14  1  0
 14 15  1  0
 15 16  1  0
 16 17  2  0
 17 18  1  0
 18 19  2  0
 19 20  1  0
 10 21  2  0
 21  7  1  0
 20 16  1  0
  1 22  1  0
  1 23  1  0
  1 24  1  0
  3 25  1  0
  3 26  1  0
  3 27  1  0
  6 28  1  0
  8 29  1  0
  9 30  1  0
 11 31  1  0
 14 32  1  0
 14 33  1  0
 15 34  1  0
 15 35  1  0
 17 36  1  0
 18 37  1  0
 20 38  1  0
M  END
>  <Energy>  (355) 
246.13180410652012

>  <compound_id>  (355) 
13494

>  <target_id>  (355) 
1

>  <reference_id>  (355) 
7

>  <inspiration_ids>  (355) 
[122, 7]

>  <energy_score>  (355) 
214.4150666724609

>  <distance_score>  (355) 
13.849765613972899

>  <path>  (355) 
/opt/xchem-fragalysis-2/maxwin/BulkDock/SCRATCH/511023/C13494-P7/C13494-P7.minimised.mol

>  <scratch_subdir>  (355) 
/opt/xchem-fragalysis-2/maxwin/BulkDock/SCRATCH/511023/C13494-P7

>  <fragmenstein_runtime>  (355) 
14.167419672012329

>  <fragmenstein_outcome>  (355) 
too moved

>  <fragmenstein_mode>  (355) 
expansion

>  <fragmenstein_error>  (355) 


$$$$
C13495-P122
     RDKit          3D

 35 36  0  0  0  0  0  0  0  0999 V2000
   -3.1444   -1.4461   33.0037 C   0  0  0  0  0  0  0  0  0  0  0  0
   -2.5167   -1.2556   31.7084 N   0  0  0  0  0  0  0  0  0  0  0  0
   -2.4443   -2.1766   30.6946 C   0  0  0  0  0  0  0  0  0  0  0  0
   -2.2792   -1.4535   29.5235 C   0  0  0  0  0  0  0  0  0  0  0  0
   -2.7576   -1.8342   28.2410 N   0  0  0  0  0  0  0  0  0  0  0  0
   -2.5965   -1.1960   26.9270 C   0  0  0  0  0  0  0  0  0  0  0  0
   -2.0953   -0.1678   26.6347 O   0  0  0  0  0  0  0  0  0  0  0  0
   -3.2040   -2.3808   25.8750 N   0  0  0  0  0  0  0  0  0  0  0  0
   -3.1385   -2.4856   24.1483 C   0  0  0  0  0  0  0  0  0  0  0  0
   -1.6309   -2.3628   23.0226 C   0  0  0  0  0  0  0  0  0  0  0  0
    0.1268   -2.4611   22.6026 N   0  0  0  0  0  0  0  0  0  0  0  0
    1.1553   -3.7590   22.5204 C   0  0  0  0  0  0  0  0  0  0  0  0
    0.9123   -4.9490   22.6432 O   0  0  0  0  0  0  0  0  0  0  0  0
    2.7558   -3.4007   22.3737 C   0  0  0  0  0  0  0  0  0  0  0  0
    4.0904   -3.7607   21.2727 C   0  0  0  0  0  0  0  0  0  0  0  0
    5.3890   -2.6373   21.7125 C   0  0  0  0  0  0  0  0  0  0  0  0
    4.9755   -2.0032   22.9199 N   0  0  0  0  0  0  0  0  0  0  0  0
    3.5766   -2.5349   23.3959 N   0  0  0  0  0  0  0  0  0  0  0  0
   -1.9223   -0.1611   29.9991 C   0  0  0  0  0  0  0  0  0  0  0  0
   -2.0869   -0.0381   31.3304 N   0  0  0  0  0  0  0  0  0  0  0  0
   -4.0395   -0.8206   33.0418 H   0  0  0  0  0  0  0  0  0  0  0  0
   -3.4105   -2.4985   33.1245 H   0  0  0  0  0  0  0  0  0  0  0  0
   -2.4282   -1.1479   33.7730 H   0  0  0  0  0  0  0  0  0  0  0  0
   -2.7196   -3.1898   30.8966 H   0  0  0  0  0  0  0  0  0  0  0  0
   -3.1580   -2.7490   28.1166 H   0  0  0  0  0  0  0  0  0  0  0  0
   -3.6365   -3.0927   26.3977 H   0  0  0  0  0  0  0  0  0  0  0  0
   -3.3196   -1.4951   24.1506 H   0  0  0  0  0  0  0  0  0  0  0  0
   -3.7990   -2.9906   23.4593 H   0  0  0  0  0  0  0  0  0  0  0  0
   -1.4001   -3.2713   23.5124 H   0  0  0  0  0  0  0  0  0  0  0  0
   -2.1999   -2.1847   22.1529 H   0  0  0  0  0  0  0  0  0  0  0  0
    0.6022   -1.6646   22.3877 H   0  0  0  0  0  0  0  0  0  0  0  0
    4.2397   -4.3979   20.3740 H   0  0  0  0  0  0  0  0  0  0  0  0
    6.1041   -2.3095   20.9839 H   0  0  0  0  0  0  0  0  0  0  0  0
    3.1614   -2.1007   24.2125 H   0  0  0  0  0  0  0  0  0  0  0  0
   -1.6932    0.7220   29.4151 H   0  0  0  0  0  0  0  0  0  0  0  0
  1  2  1  0
  2  3  1  0
  3  4  2  0
  4  5  1  0
  5  6  1  0
  6  7  2  0
  6  8  1  0
  8  9  1  0
  9 10  1  0
 10 11  1  0
 11 12  1  0
 12 13  2  0
 12 14  1  0
 14 15  2  0
 15 16  1  0
 16 17  2  0
 17 18  1  0
  4 19  1  0
 19 20  2  0
 20  2  1  0
 18 14  1  0
  1 21  1  0
  1 22  1  0
  1 23  1  0
  3 24  1  0
  5 25  1  0
  8 26  1  0
  9 27  1  0
  9 28  1  0
 10 29  1  0
 10 30  1  0
 11 31  1  0
 15 32  1  0
 16 33  1  0
 18 34  1  0
 19 35  1  0
M  END
>  <Energy>  (356) 
303.14149358790957

>  <compound_id>  (356) 
13495

>  <target_id>  (356) 
1

>  <reference_id>  (356) 
122

>  <inspiration_ids>  (356) 
[122, 7]

>  <energy_score>  (356) 
339.46637866804707

>  <distance_score>  (356) 
11.614769703975291

>  <path>  (356) 
/opt/xchem-fragalysis-2/maxwin/BulkDock/SCRATCH/511023/C13495-P122/C13495-P122.minimised.mol

>  <scratch_subdir>  (356) 
/opt/xchem-fragalysis-2/maxwin/BulkDock/SCRATCH/511023/C13495-P122

>  <fragmenstein_runtime>  (356) 
12.510151386260986

>  <fragmenstein_outcome>  (356) 
too moved

>  <fragmenstein_mode>  (356) 
expansion

>  <fragmenstein_error>  (356) 


$$$$
C13495-P7
     RDKit          3D

 35 36  0  0  0  0  0  0  0  0999 V2000
   -1.3890    0.3981   31.7055 C   0  0  0  0  0  0  0  0  0  0  0  0
   -1.3227    0.5672   30.2685 N   0  0  0  0  0  0  0  0  0  0  0  0
   -0.4277    1.2903   29.5062 C   0  0  0  0  0  0  0  0  0  0  0  0
   -0.8749    1.2403   28.2007 C   0  0  0  0  0  0  0  0  0  0  0  0
   -0.4397    1.8269   27.0178 N   0  0  0  0  0  0  0  0  0  0  0  0
    0.9080    2.4093   26.6393 C   0  0  0  0  0  0  0  0  0  0  0  0
    1.8761    2.5690   27.2901 O   0  0  0  0  0  0  0  0  0  0  0  0
    0.6783    2.6342   25.1480 N   0  0  0  0  0  0  0  0  0  0  0  0
    1.6239    3.0218   24.0706 C   0  0  0  0  0  0  0  0  0  0  0  0
    2.7237    1.9290   23.7531 C   0  0  0  0  0  0  0  0  0  0  0  0
    3.5507    1.9938   22.4526 N   0  0  0  0  0  0  0  0  0  0  0  0
    4.6301    0.7351   21.6478 C   0  0  0  0  0  0  0  0  0  0  0  0
    4.7537   -0.3910   22.0153 O   0  0  0  0  0  0  0  0  0  0  0  0
    5.8411    1.0813   20.2299 C   0  0  0  0  0  0  0  0  0  0  0  0
    6.0610    0.8121   18.8300 C   0  0  0  0  0  0  0  0  0  0  0  0
    6.8537    1.8287   18.2831 C   0  0  0  0  0  0  0  0  0  0  0  0
    7.2419    2.6732   19.2215 N   0  0  0  0  0  0  0  0  0  0  0  0
    6.8574    2.0483   20.3598 N   0  0  0  0  0  0  0  0  0  0  0  0
   -1.9964    0.3802   28.2934 C   0  0  0  0  0  0  0  0  0  0  0  0
   -2.2676   -0.0255   29.5337 N   0  0  0  0  0  0  0  0  0  0  0  0
   -0.6567    1.0612   32.1720 H   0  0  0  0  0  0  0  0  0  0  0  0
   -1.1566   -0.6443   31.9359 H   0  0  0  0  0  0  0  0  0  0  0  0
   -2.3959    0.6551   32.0429 H   0  0  0  0  0  0  0  0  0  0  0  0
    0.4095    1.8050   29.9561 H   0  0  0  0  0  0  0  0  0  0  0  0
   -1.0123    1.7613   26.2043 H   0  0  0  0  0  0  0  0  0  0  0  0
   -0.2860    2.4790   24.9330 H   0  0  0  0  0  0  0  0  0  0  0  0
    2.0995    3.9574   24.3877 H   0  0  0  0  0  0  0  0  0  0  0  0
    1.0254    3.2393   23.1799 H   0  0  0  0  0  0  0  0  0  0  0  0
    3.4488    2.4014   24.4194 H   0  0  0  0  0  0  0  0  0  0  0  0
    2.6848    1.0413   24.3728 H   0  0  0  0  0  0  0  0  0  0  0  0
    3.5469    2.8568   21.8929 H   0  0  0  0  0  0  0  0  0  0  0  0
    5.5714    0.0905   18.1886 H   0  0  0  0  0  0  0  0  0  0  0  0
    7.1268    2.0056   17.2526 H   0  0  0  0  0  0  0  0  0  0  0  0
    7.0275    2.5565   21.2021 H   0  0  0  0  0  0  0  0  0  0  0  0
   -2.6179    0.0221   27.4856 H   0  0  0  0  0  0  0  0  0  0  0  0
  1  2  1  0
  2  3  1  0
  3  4  2  0
  4  5  1  0
  5  6  1  0
  6  7  2  0
  6  8  1  0
  8  9  1  0
  9 10  1  0
 10 11  1  0
 11 12  1  0
 12 13  2  0
 12 14  1  0
 14 15  2  0
 15 16  1  0
 16 17  2  0
 17 18  1  0
  4 19  1  0
 19 20  2  0
 20  2  1  0
 18 14  1  0
  1 21  1  0
  1 22  1  0
  1 23  1  0
  3 24  1  0
  5 25  1  0
  8 26  1  0
  9 27  1  0
  9 28  1  0
 10 29  1  0
 10 30  1  0
 11 31  1  0
 15 32  1  0
 16 33  1  0
 18 34  1  0
 19 35  1  0
M  END
>  <Energy>  (357) 
116.28726523278948

>  <compound_id>  (357) 
13495

>  <target_id>  (357) 
1

>  <reference_id>  (357) 
7

>  <inspiration_ids>  (357) 
[122, 7]

>  <energy_score>  (357) 
152.6121503129334

>  <distance_score>  (357) 
11.967039457037233

>  <path>  (357) 
/opt/xchem-fragalysis-2/maxwin/BulkDock/SCRATCH/511023/C13495-P7/C13495-P7.minimised.mol

>  <scratch_subdir>  (357) 
/opt/xchem-fragalysis-2/maxwin/BulkDock/SCRATCH/511023/C13495-P7

>  <fragmenstein_runtime>  (357) 
15.900628328323364

>  <fragmenstein_outcome>  (357) 
too moved

>  <fragmenstein_mode>  (357) 
expansion

>  <fragmenstein_error>  (357) 


$$$$
C13496-P122
     RDKit          3D

 38 39  0  0  0  0  0  0  0  0999 V2000
   -2.9909   -2.7079   31.5217 O   0  0  0  0  0  0  0  0  0  0  0  0
   -2.4735   -1.6870   31.7857 C   0  0  0  0  0  0  0  0  0  0  0  0
   -1.1851   -1.0837   31.2628 N   0  0  0  0  0  0  0  0  0  0  0  0
   -0.2639   -1.5503   30.2088 C   0  0  0  0  0  0  0  0  0  0  0  0
    1.1494   -0.9231   30.2263 C   0  0  0  0  0  0  0  0  0  0  0  0
    2.0491   -1.2858   29.1238 N   0  0  0  0  0  0  0  0  0  0  0  0
    3.4595   -1.5914   29.1157 C   0  0  0  0  0  0  0  0  0  0  0  0
    4.2368   -1.7041   30.0168 O   0  0  0  0  0  0  0  0  0  0  0  0
    4.0275   -1.7383   27.7618 C   0  0  0  0  0  0  0  0  0  0  0  0
    3.5588   -1.5523   26.4743 C   0  0  0  0  0  0  0  0  0  0  0  0
    4.6137   -1.8912   25.6042 C   0  0  0  0  0  0  0  0  0  0  0  0
    5.7109   -2.2524   26.2682 N   0  0  0  0  0  0  0  0  0  0  0  0
    5.3433   -2.1221   27.5588 N   0  0  0  0  0  0  0  0  0  0  0  0
   -2.9245   -0.5771   32.7137 N   0  0  0  0  0  0  0  0  0  0  0  0
   -4.1041   -0.4198   33.4297 C   0  0  0  0  0  0  0  0  0  0  0  0
   -4.5197    0.6540   34.2566 C   0  0  0  0  0  0  0  0  0  0  0  0
   -5.7479    0.4922   34.7697 N   0  0  0  0  0  0  0  0  0  0  0  0
   -6.1292   -0.7077   34.2962 N   0  0  0  0  0  0  0  0  0  0  0  0
   -7.4140   -1.2929   34.6245 C   0  0  0  0  0  0  0  0  0  0  0  0
   -8.1863   -0.7002   35.7857 C   0  0  0  0  0  0  0  0  0  0  0  0
   -9.0874   -1.6276   36.2366 F   0  0  0  0  0  0  0  0  0  0  0  0
   -8.9171    0.3708   35.3864 F   0  0  0  0  0  0  0  0  0  0  0  0
   -5.1724   -1.2881   33.4943 C   0  0  0  0  0  0  0  0  0  0  0  0
   -0.9904   -0.2345   31.7585 H   0  0  0  0  0  0  0  0  0  0  0  0
   -0.2014   -2.6411   30.2875 H   0  0  0  0  0  0  0  0  0  0  0  0
   -0.7551   -1.3320   29.2538 H   0  0  0  0  0  0  0  0  0  0  0  0
    1.6554   -1.1745   31.1651 H   0  0  0  0  0  0  0  0  0  0  0  0
    1.0605    0.1688   30.1970 H   0  0  0  0  0  0  0  0  0  0  0  0
    1.7271   -1.1885   28.1690 H   0  0  0  0  0  0  0  0  0  0  0  0
    2.5763   -1.2370   26.1780 H   0  0  0  0  0  0  0  0  0  0  0  0
    4.6052   -1.8834   24.5223 H   0  0  0  0  0  0  0  0  0  0  0  0
    6.0219   -2.3279   28.2849 H   0  0  0  0  0  0  0  0  0  0  0  0
   -2.2868    0.1916   32.6466 H   0  0  0  0  0  0  0  0  0  0  0  0
   -3.9735    1.5537   34.5077 H   0  0  0  0  0  0  0  0  0  0  0  0
   -7.9890   -1.2953   33.7021 H   0  0  0  0  0  0  0  0  0  0  0  0
   -7.1934   -2.3265   34.8582 H   0  0  0  0  0  0  0  0  0  0  0  0
   -7.5544   -0.4082   36.6290 H   0  0  0  0  0  0  0  0  0  0  0  0
   -5.3362   -2.2525   33.0311 H   0  0  0  0  0  0  0  0  0  0  0  0
  1  2  2  0
  2  3  1  0
  3  4  1  0
  4  5  1  0
  5  6  1  0
  6  7  1  0
  7  8  2  0
  7  9  1  0
  9 10  2  0
 10 11  1  0
 11 12  2  0
 12 13  1  0
  2 14  1  0
 14 15  1  0
 15 16  1  0
 16 17  2  0
 17 18  1  0
 18 19  1  0
 19 20  1  0
 20 21  1  0
 20 22  1  0
 18 23  1  0
 13  9  1  0
 23 15  2  0
  3 24  1  0
  4 25  1  0
  4 26  1  0
  5 27  1  0
  5 28  1  0
  6 29  1  0
 10 30  1  0
 11 31  1  0
 13 32  1  0
 14 33  1  0
 16 34  1  0
 19 35  1  0
 19 36  1  0
 20 37  1  0
 23 38  1  0
M  END
>  <Energy>  (358) 
-55.133518570002522

>  <compound_id>  (358) 
13496

>  <target_id>  (358) 
1

>  <reference_id>  (358) 
122

>  <inspiration_ids>  (358) 
[122, 7]

>  <energy_score>  (358) 
-19.72900195880038

>  <distance_score>  (358) 
10.745228320569968

>  <path>  (358) 
/opt/xchem-fragalysis-2/maxwin/BulkDock/SCRATCH/511023/C13496-P122/C13496-P122.minimised.mol

>  <scratch_subdir>  (358) 
/opt/xchem-fragalysis-2/maxwin/BulkDock/SCRATCH/511023/C13496-P122

>  <fragmenstein_runtime>  (358) 
17.078871965408325

>  <fragmenstein_outcome>  (358) 
too moved

>  <fragmenstein_mode>  (358) 
expansion

>  <fragmenstein_error>  (358) 


$$$$
C13496-P7
     RDKit          3D

 38 39  0  0  0  0  0  0  0  0999 V2000
   -0.6797   -1.8122   27.3852 O   0  0  0  0  0  0  0  0  0  0  0  0
   -1.3313   -0.8609   27.1731 C   0  0  0  0  0  0  0  0  0  0  0  0
   -1.8481   -0.3245   25.5813 N   0  0  0  0  0  0  0  0  0  0  0  0
   -1.6277   -1.2059   23.7365 C   0  0  0  0  0  0  0  0  0  0  0  0
   -0.1012   -2.1812   22.6336 C   0  0  0  0  0  0  0  0  0  0  0  0
    0.7945   -2.7203   21.0033 N   0  0  0  0  0  0  0  0  0  0  0  0
    1.0827   -1.7171   19.3029 C   0  0  0  0  0  0  0  0  0  0  0  0
    0.7911   -0.5778   19.1483 O   0  0  0  0  0  0  0  0  0  0  0  0
    1.6228   -2.3646   17.8217 C   0  0  0  0  0  0  0  0  0  0  0  0
    2.4499   -1.7307   16.9045 C   0  0  0  0  0  0  0  0  0  0  0  0
    2.8226   -2.7412   16.0009 C   0  0  0  0  0  0  0  0  0  0  0  0
    2.2435   -3.9148   16.2790 N   0  0  0  0  0  0  0  0  0  0  0  0
    1.4540   -3.6376   17.3432 N   0  0  0  0  0  0  0  0  0  0  0  0
   -1.9752    0.0628   28.1122 N   0  0  0  0  0  0  0  0  0  0  0  0
   -2.0791    0.0196   29.5219 C   0  0  0  0  0  0  0  0  0  0  0  0
   -1.9556    0.8985   30.6025 C   0  0  0  0  0  0  0  0  0  0  0  0
   -2.4803    0.4622   31.7705 N   0  0  0  0  0  0  0  0  0  0  0  0
   -2.8020   -0.8142   31.4905 N   0  0  0  0  0  0  0  0  0  0  0  0
   -3.5738   -1.6624   32.4090 C   0  0  0  0  0  0  0  0  0  0  0  0
   -4.5428   -0.9783   33.3797 C   0  0  0  0  0  0  0  0  0  0  0  0
   -5.2741   -1.9157   34.0605 F   0  0  0  0  0  0  0  0  0  0  0  0
   -5.4550   -0.2201   32.7255 F   0  0  0  0  0  0  0  0  0  0  0  0
   -2.2998   -1.1618   30.2406 C   0  0  0  0  0  0  0  0  0  0  0  0
   -2.4662    0.4690   25.6799 H   0  0  0  0  0  0  0  0  0  0  0  0
   -2.5472   -1.7794   23.4693 H   0  0  0  0  0  0  0  0  0  0  0  0
   -1.4775   -0.1780   23.4773 H   0  0  0  0  0  0  0  0  0  0  0  0
   -1.0093   -2.3907   22.1368 H   0  0  0  0  0  0  0  0  0  0  0  0
    0.2299   -3.0777   23.0799 H   0  0  0  0  0  0  0  0  0  0  0  0
    1.0385   -3.6901   20.8765 H   0  0  0  0  0  0  0  0  0  0  0  0
    2.7916   -0.7069   16.9509 H   0  0  0  0  0  0  0  0  0  0  0  0
    3.4959   -2.6710   15.1561 H   0  0  0  0  0  0  0  0  0  0  0  0
    0.8835   -4.3736   17.7462 H   0  0  0  0  0  0  0  0  0  0  0  0
   -2.3880    0.8225   27.5961 H   0  0  0  0  0  0  0  0  0  0  0  0
   -1.4333    1.8348   30.5917 H   0  0  0  0  0  0  0  0  0  0  0  0
   -2.8364   -2.2454   32.9719 H   0  0  0  0  0  0  0  0  0  0  0  0
   -4.1327   -2.3666   31.7828 H   0  0  0  0  0  0  0  0  0  0  0  0
   -4.0234   -0.3477   34.1066 H   0  0  0  0  0  0  0  0  0  0  0  0
   -2.3517   -2.1859   29.8938 H   0  0  0  0  0  0  0  0  0  0  0  0
  1  2  2  0
  2  3  1  0
  3  4  1  0
  4  5  1  0
  5  6  1  0
  6  7  1  0
  7  8  2  0
  7  9  1  0
  9 10  2  0
 10 11  1  0
 11 12  2  0
 12 13  1  0
  2 14  1  0
 14 15  1  0
 15 16  1  0
 16 17  2  0
 17 18  1  0
 18 19  1  0
 19 20  1  0
 20 21  1  0
 20 22  1  0
 18 23  1  0
 13  9  1  0
 23 15  2  0
  3 24  1  0
  4 25  1  0
  4 26  1  0
  5 27  1  0
  5 28  1  0
  6 29  1  0
 10 30  1  0
 11 31  1  0
 13 32  1  0
 14 33  1  0
 16 34  1  0
 19 35  1  0
 19 36  1  0
 20 37  1  0
 23 38  1  0
M  END
>  <Energy>  (359) 
455.71687642508363

>  <compound_id>  (359) 
13496

>  <target_id>  (359) 
1

>  <reference_id>  (359) 
7

>  <inspiration_ids>  (359) 
[122, 7]

>  <energy_score>  (359) 
491.12139303627896

>  <distance_score>  (359) 
11.152757139701459

>  <path>  (359) 
/opt/xchem-fragalysis-2/maxwin/BulkDock/SCRATCH/511023/C13496-P7/C13496-P7.minimised.mol

>  <scratch_subdir>  (359) 
/opt/xchem-fragalysis-2/maxwin/BulkDock/SCRATCH/511023/C13496-P7

>  <fragmenstein_runtime>  (359) 
13.183217763900757

>  <fragmenstein_outcome>  (359) 
too moved

>  <fragmenstein_mode>  (359) 
expansion

>  <fragmenstein_error>  (359) 


$$$$
C18696-P122
     RDKit          3D

 37 38  0  0  0  0  0  0  0  0999 V2000
   -9.0015   -2.7363   23.1426 C   0  0  0  0  0  0  0  0  0  0  0  0
   -9.8141   -4.0238   23.1518 C   0  0  0  0  0  0  0  0  0  0  0  0
   -8.9877   -5.3059   22.7611 C   0  0  0  0  0  0  0  0  0  0  0  0
   -7.8559   -5.2597   21.8081 N   0  0  0  0  0  0  0  0  0  0  0  0
   -7.6975   -4.5584   20.5600 C   0  0  0  0  0  0  0  0  0  0  0  0
   -8.4120   -3.7692   20.0119 O   0  0  0  0  0  0  0  0  0  0  0  0
   -6.3609   -4.9206   19.9039 C   0  0  0  0  0  0  0  0  0  0  0  0
   -5.7552   -4.3110   18.7514 C   0  0  0  0  0  0  0  0  0  0  0  0
   -4.5773   -4.9829   18.5197 C   0  0  0  0  0  0  0  0  0  0  0  0
   -4.5103   -5.9285   19.4947 N   0  0  0  0  0  0  0  0  0  0  0  0
   -5.5493   -5.9060   20.3622 N   0  0  0  0  0  0  0  0  0  0  0  0
  -10.6581   -4.1194   24.4108 N   0  0  0  0  0  0  0  0  0  0  0  0
   -9.9392   -4.0770   25.6965 C   0  0  0  0  0  0  0  0  0  0  0  0
  -10.7315   -3.4786   26.8485 C   0  0  0  0  0  0  0  0  0  0  0  0
  -10.9044   -2.1490   27.2085 C   0  0  0  0  0  0  0  0  0  0  0  0
  -11.6148   -2.1645   28.4208 C   0  0  0  0  0  0  0  0  0  0  0  0
  -11.8755   -3.4039   28.8297 N   0  0  0  0  0  0  0  0  0  0  0  0
  -11.3475   -4.1839   27.8623 N   0  0  0  0  0  0  0  0  0  0  0  0
  -11.4771   -5.6137   27.9976 C   0  0  0  0  0  0  0  0  0  0  0  0
   -9.5671   -1.8983   23.5658 H   0  0  0  0  0  0  0  0  0  0  0  0
   -8.7496   -2.4458   22.1206 H   0  0  0  0  0  0  0  0  0  0  0  0
   -8.0749   -2.8458   23.7060 H   0  0  0  0  0  0  0  0  0  0  0  0
  -10.5529   -3.9115   22.3462 H   0  0  0  0  0  0  0  0  0  0  0  0
   -9.6811   -6.0606   22.3717 H   0  0  0  0  0  0  0  0  0  0  0  0
   -8.5555   -5.7278   23.6751 H   0  0  0  0  0  0  0  0  0  0  0  0
   -7.0857   -5.9169   21.9184 H   0  0  0  0  0  0  0  0  0  0  0  0
   -6.1606   -3.4848   18.1845 H   0  0  0  0  0  0  0  0  0  0  0  0
   -3.8080   -4.8734   17.7697 H   0  0  0  0  0  0  0  0  0  0  0  0
   -3.7888   -6.6281   19.6320 H   0  0  0  0  0  0  0  0  0  0  0  0
  -11.2930   -3.3178   24.3953 H   0  0  0  0  0  0  0  0  0  0  0  0
   -9.6007   -5.0859   25.9528 H   0  0  0  0  0  0  0  0  0  0  0  0
   -9.0536   -3.4470   25.6130 H   0  0  0  0  0  0  0  0  0  0  0  0
  -10.5437   -1.2836   26.6699 H   0  0  0  0  0  0  0  0  0  0  0  0
  -11.9470   -1.3275   29.0203 H   0  0  0  0  0  0  0  0  0  0  0  0
  -12.2610   -5.8474   28.7225 H   0  0  0  0  0  0  0  0  0  0  0  0
  -10.5159   -6.0173   28.3222 H   0  0  0  0  0  0  0  0  0  0  0  0
  -11.7530   -6.0311   27.0258 H   0  0  0  0  0  0  0  0  0  0  0  0
  1  2  1  0
  2  3  1  0
  3  4  1  0
  4  5  1  0
  5  6  2  0
  5  7  1  0
  7  8  1  0
  8  9  2  0
  9 10  1  0
 10 11  1  0
  2 12  1  0
 12 13  1  0
 13 14  1  0
 14 15  2  0
 15 16  1  0
 16 17  2  0
 17 18  1  0
 18 19  1  0
 11  7  2  0
 18 14  1  0
  1 20  1  0
  1 21  1  0
  1 22  1  0
  2 23  1  0
  3 24  1  0
  3 25  1  0
  4 26  1  0
  8 27  1  0
  9 28  1  0
 10 29  1  0
 12 30  1  0
 13 31  1  0
 13 32  1  0
 15 33  1  0
 16 34  1  0
 19 35  1  0
 19 36  1  0
 19 37  1  0
M  END
>  <Energy>  (360) 
44.645028446506792

>  <compound_id>  (360) 
18696

>  <target_id>  (360) 
1

>  <reference_id>  (360) 
122

>  <inspiration_ids>  (360) 
[122, 7]

>  <energy_score>  (360) 
-22.84678708760049

>  <distance_score>  (360) 
14.468843274983309

>  <path>  (360) 
/opt/xchem-fragalysis-2/maxwin/BulkDock/SCRATCH/511023/C18696-P122/C18696-P122.minimised.mol

>  <scratch_subdir>  (360) 
/opt/xchem-fragalysis-2/maxwin/BulkDock/SCRATCH/511023/C18696-P122

>  <fragmenstein_runtime>  (360) 
12.66911768913269

>  <fragmenstein_outcome>  (360) 
too moved

>  <fragmenstein_mode>  (360) 
expansion

>  <fragmenstein_error>  (360) 


$$$$
C18696-P7
     RDKit          3D

 37 38  0  0  0  0  0  0  0  0999 V2000
   -0.5879   -2.9224   31.7998 C   0  0  0  0  0  0  0  0  0  0  0  0
   -1.3335   -1.8276   31.0338 C   0  0  0  0  0  0  0  0  0  0  0  0
   -0.3561   -0.6590   30.6570 C   0  0  0  0  0  0  0  0  0  0  0  0
    0.7166   -0.9541   29.6899 N   0  0  0  0  0  0  0  0  0  0  0  0
    2.0490   -0.4089   29.5577 C   0  0  0  0  0  0  0  0  0  0  0  0
    2.6480    0.3637   30.2491 O   0  0  0  0  0  0  0  0  0  0  0  0
    2.7263   -0.8464   28.2747 C   0  0  0  0  0  0  0  0  0  0  0  0
    3.9424   -0.3295   27.7072 C   0  0  0  0  0  0  0  0  0  0  0  0
    4.0821   -0.9293   26.4770 C   0  0  0  0  0  0  0  0  0  0  0  0
    3.0149   -1.7704   26.3621 N   0  0  0  0  0  0  0  0  0  0  0  0
    2.2160   -1.7859   27.4581 N   0  0  0  0  0  0  0  0  0  0  0  0
   -2.6264   -1.4081   31.6590 N   0  0  0  0  0  0  0  0  0  0  0  0
   -2.8194   -1.4823   33.1156 C   0  0  0  0  0  0  0  0  0  0  0  0
   -4.2856   -1.3320   33.5204 C   0  0  0  0  0  0  0  0  0  0  0  0
   -5.4646   -1.6142   32.8528 C   0  0  0  0  0  0  0  0  0  0  0  0
   -6.5064   -1.1541   33.6740 C   0  0  0  0  0  0  0  0  0  0  0  0
   -6.0560   -0.7489   34.8582 N   0  0  0  0  0  0  0  0  0  0  0  0
   -4.7262   -0.9871   34.7839 N   0  0  0  0  0  0  0  0  0  0  0  0
   -3.9641   -0.9186   36.0037 C   0  0  0  0  0  0  0  0  0  0  0  0
   -1.2396   -3.7811   31.9930 H   0  0  0  0  0  0  0  0  0  0  0  0
    0.2638   -3.2917   31.2181 H   0  0  0  0  0  0  0  0  0  0  0  0
   -0.2018   -2.5538   32.7559 H   0  0  0  0  0  0  0  0  0  0  0  0
   -1.6347   -2.2753   30.0771 H   0  0  0  0  0  0  0  0  0  0  0  0
    0.1097   -0.2438   31.5579 H   0  0  0  0  0  0  0  0  0  0  0  0
   -0.9336    0.1510   30.1956 H   0  0  0  0  0  0  0  0  0  0  0  0
    0.5064   -1.5216   28.8664 H   0  0  0  0  0  0  0  0  0  0  0  0
    4.5698    0.4398   28.1361 H   0  0  0  0  0  0  0  0  0  0  0  0
    4.7806   -0.7892   25.6652 H   0  0  0  0  0  0  0  0  0  0  0  0
    2.7129   -2.3132   25.5504 H   0  0  0  0  0  0  0  0  0  0  0  0
   -2.9134   -0.4979   31.3110 H   0  0  0  0  0  0  0  0  0  0  0  0
   -2.2316   -0.6883   33.5900 H   0  0  0  0  0  0  0  0  0  0  0  0
   -2.4687   -2.4365   33.5079 H   0  0  0  0  0  0  0  0  0  0  0  0
   -5.5450   -2.0693   31.8790 H   0  0  0  0  0  0  0  0  0  0  0  0
   -7.5685   -1.1285   33.4709 H   0  0  0  0  0  0  0  0  0  0  0  0
   -3.1471   -1.6427   35.9587 H   0  0  0  0  0  0  0  0  0  0  0  0
   -4.6107   -1.1565   36.8525 H   0  0  0  0  0  0  0  0  0  0  0  0
   -3.5695    0.0955   36.1005 H   0  0  0  0  0  0  0  0  0  0  0  0
  1  2  1  0
  2  3  1  0
  3  4  1  0
  4  5  1  0
  5  6  2  0
  5  7  1  0
  7  8  1  0
  8  9  2  0
  9 10  1  0
 10 11  1  0
  2 12  1  0
 12 13  1  0
 13 14  1  0
 14 15  2  0
 15 16  1  0
 16 17  2  0
 17 18  1  0
 18 19  1  0
 11  7  2  0
 18 14  1  0
  1 20  1  0
  1 21  1  0
  1 22  1  0
  2 23  1  0
  3 24  1  0
  3 25  1  0
  4 26  1  0
  8 27  1  0
  9 28  1  0
 10 29  1  0
 12 30  1  0
 13 31  1  0
 13 32  1  0
 15 33  1  0
 16 34  1  0
 19 35  1  0
 19 36  1  0
 19 37  1  0
M  END
>  <Energy>  (361) 
45.548182741117856

>  <compound_id>  (361) 
18696

>  <target_id>  (361) 
1

>  <reference_id>  (361) 
7

>  <inspiration_ids>  (361) 
[122, 7]

>  <energy_score>  (361) 
-21.943632792989376

>  <distance_score>  (361) 
11.959120978043583

>  <path>  (361) 
/opt/xchem-fragalysis-2/maxwin/BulkDock/SCRATCH/511023/C18696-P7/C18696-P7.minimised.mol

>  <scratch_subdir>  (361) 
/opt/xchem-fragalysis-2/maxwin/BulkDock/SCRATCH/511023/C18696-P7

>  <fragmenstein_runtime>  (361) 
18.944311380386353

>  <fragmenstein_outcome>  (361) 
too moved

>  <fragmenstein_mode>  (361) 
expansion

>  <fragmenstein_error>  (361) 


$$$$
C46484-P122
     RDKit          3D

 37 39  0  0  0  0  0  0  0  0999 V2000
   12.0167   -5.0026   21.4155 C   0  0  0  0  0  0  0  0  0  0  0  0
   11.4096   -6.2738   21.8881 C   0  0  0  0  0  0  0  0  0  0  0  0
   12.2985   -7.2726   22.1974 N   0  0  0  0  0  0  0  0  0  0  0  0
   11.7330   -8.4350   22.5228 N   0  0  0  0  0  0  0  0  0  0  0  0
   10.4296   -8.1667   22.4806 C   0  0  0  0  0  0  0  0  0  0  0  0
   10.1464   -6.8362   22.1052 C   0  0  0  0  0  0  0  0  0  0  0  0
    8.4831   -6.3123   21.9457 S   0  0  0  0  0  0  0  0  0  0  0  0
    7.7580   -7.5650   21.8890 O   0  0  0  0  0  0  0  0  0  0  0  0
    8.4797   -5.4127   20.8157 O   0  0  0  0  0  0  0  0  0  0  0  0
    7.9380   -5.5680   23.3872 N   0  0  0  0  0  0  0  0  0  0  0  0
    7.2601   -3.8992   23.8976 C   0  0  0  0  0  0  0  0  0  0  0  0
    7.6490   -2.7986   25.5354 C   0  0  0  0  0  0  0  0  0  0  0  0
    8.1781   -3.5791   26.5491 F   0  0  0  0  0  0  0  0  0  0  0  0
    8.6777   -1.8931   25.3370 F   0  0  0  0  0  0  0  0  0  0  0  0
    6.2929   -1.7925   26.2522 C   0  0  0  0  0  0  0  0  0  0  0  0
    5.1759   -1.5027   25.5083 N   0  0  0  0  0  0  0  0  0  0  0  0
    4.1776   -1.1890   26.3677 N   0  0  0  0  0  0  0  0  0  0  0  0
    4.6094   -1.1855   27.6404 C   0  0  0  0  0  0  0  0  0  0  0  0
    5.9275   -1.5735   27.6335 C   0  0  0  0  0  0  0  0  0  0  0  0
    6.3847   -1.7897   29.0207 C   0  0  0  0  0  0  0  0  0  0  0  0
    5.2472   -1.1203   29.8678 C   0  0  0  0  0  0  0  0  0  0  0  0
    3.9811   -1.0327   28.9549 C   0  0  0  0  0  0  0  0  0  0  0  0
   12.8889   -4.7523   22.0322 H   0  0  0  0  0  0  0  0  0  0  0  0
   11.3544   -4.1549   21.4909 H   0  0  0  0  0  0  0  0  0  0  0  0
   12.3768   -5.1105   20.3887 H   0  0  0  0  0  0  0  0  0  0  0  0
   13.3127   -7.2254   22.1772 H   0  0  0  0  0  0  0  0  0  0  0  0
    9.7323   -8.9618   22.7169 H   0  0  0  0  0  0  0  0  0  0  0  0
    7.0956   -6.1227   23.5883 H   0  0  0  0  0  0  0  0  0  0  0  0
    6.3143   -4.2572   24.1051 H   0  0  0  0  0  0  0  0  0  0  0  0
    7.0997   -3.5791   22.9105 H   0  0  0  0  0  0  0  0  0  0  0  0
    3.2515   -1.0369   25.9763 H   0  0  0  0  0  0  0  0  0  0  0  0
    6.4442   -2.8604   29.2429 H   0  0  0  0  0  0  0  0  0  0  0  0
    7.3529   -1.3241   29.2232 H   0  0  0  0  0  0  0  0  0  0  0  0
    5.5601   -0.1037   30.1409 H   0  0  0  0  0  0  0  0  0  0  0  0
    5.0511   -1.6633   30.7978 H   0  0  0  0  0  0  0  0  0  0  0  0
    3.2964   -1.8598   29.1660 H   0  0  0  0  0  0  0  0  0  0  0  0
    3.4624   -0.0793   29.0822 H   0  0  0  0  0  0  0  0  0  0  0  0
  1  2  1  0
  2  3  1  0
  3  4  1  0
  4  5  2  0
  5  6  1  0
  6  7  1  0
  7  8  2  0
  7  9  2  0
  7 10  1  0
 10 11  1  0
 11 12  1  0
 12 13  1  0
 12 14  1  0
 12 15  1  0
 15 16  2  0
 16 17  1  0
 17 18  1  0
 18 19  2  0
 19 20  1  0
 20 21  1  0
 21 22  1  0
  6  2  2  0
 19 15  1  0
 22 18  1  0
  1 23  1  0
  1 24  1  0
  1 25  1  0
  3 26  1  0
  5 27  1  0
 10 28  1  0
 11 29  1  0
 11 30  1  0
 17 31  1  0
 20 32  1  0
 20 33  1  0
 21 34  1  0
 21 35  1  0
 22 36  1  0
 22 37  1  0
M  END
>  <Energy>  (362) 
224.56318030001941

>  <compound_id>  (362) 
46484

>  <target_id>  (362) 
1

>  <reference_id>  (362) 
122

>  <inspiration_ids>  (362) 
[122, 7]

>  <energy_score>  (362) 
109.27336605579251

>  <distance_score>  (362) 
15.721403280207289

>  <path>  (362) 
/opt/xchem-fragalysis-2/maxwin/BulkDock/SCRATCH/511023/C46484-P122/C46484-P122.minimised.mol

>  <scratch_subdir>  (362) 
/opt/xchem-fragalysis-2/maxwin/BulkDock/SCRATCH/511023/C46484-P122

>  <fragmenstein_runtime>  (362) 
5.975689888000488

>  <fragmenstein_outcome>  (362) 
too moved

>  <fragmenstein_mode>  (362) 
expansion

>  <fragmenstein_error>  (362) 


$$$$
C46484-P7
     RDKit          3D

 37 39  0  0  0  0  0  0  0  0999 V2000
   11.6053   -5.3413   21.4501 C   0  0  0  0  0  0  0  0  0  0  0  0
   11.0730   -6.1904   22.5364 C   0  0  0  0  0  0  0  0  0  0  0  0
   11.9488   -6.8123   23.3786 N   0  0  0  0  0  0  0  0  0  0  0  0
   11.3554   -7.5796   24.2990 N   0  0  0  0  0  0  0  0  0  0  0  0
   10.0537   -7.4222   24.0524 C   0  0  0  0  0  0  0  0  0  0  0  0
    9.8010   -6.5513   22.9830 C   0  0  0  0  0  0  0  0  0  0  0  0
    8.1946   -6.2121   22.4055 S   0  0  0  0  0  0  0  0  0  0  0  0
    7.5925   -7.5291   22.5080 O   0  0  0  0  0  0  0  0  0  0  0  0
    8.3836   -5.6148   21.0977 O   0  0  0  0  0  0  0  0  0  0  0  0
    7.1828   -5.2558   23.3653 N   0  0  0  0  0  0  0  0  0  0  0  0
    6.7279   -3.6755   24.1436 C   0  0  0  0  0  0  0  0  0  0  0  0
    5.3525   -2.3711   24.7123 C   0  0  0  0  0  0  0  0  0  0  0  0
    6.1339   -1.3701   25.2350 F   0  0  0  0  0  0  0  0  0  0  0  0
    4.8231   -1.8702   23.5691 F   0  0  0  0  0  0  0  0  0  0  0  0
    4.2037   -2.2050   25.9521 C   0  0  0  0  0  0  0  0  0  0  0  0
    3.0940   -2.9391   26.0926 N   0  0  0  0  0  0  0  0  0  0  0  0
    2.3373   -2.3988   27.0817 N   0  0  0  0  0  0  0  0  0  0  0  0
    2.9504   -1.3699   27.6664 C   0  0  0  0  0  0  0  0  0  0  0  0
    4.1141   -1.1825   26.9728 C   0  0  0  0  0  0  0  0  0  0  0  0
    4.7938    0.0235   27.4796 C   0  0  0  0  0  0  0  0  0  0  0  0
    3.6811    0.7166   28.3404 C   0  0  0  0  0  0  0  0  0  0  0  0
    2.6250   -0.3799   28.6920 C   0  0  0  0  0  0  0  0  0  0  0  0
   12.5593   -5.7170   21.0708 H   0  0  0  0  0  0  0  0  0  0  0  0
   10.8848   -5.3636   20.6508 H   0  0  0  0  0  0  0  0  0  0  0  0
   11.7599   -4.3153   21.7911 H   0  0  0  0  0  0  0  0  0  0  0  0
   12.9633   -6.7633   23.3763 H   0  0  0  0  0  0  0  0  0  0  0  0
    9.3435   -7.9684   24.6590 H   0  0  0  0  0  0  0  0  0  0  0  0
    6.5014   -5.9357   23.7243 H   0  0  0  0  0  0  0  0  0  0  0  0
    5.9838   -4.3752   24.3759 H   0  0  0  0  0  0  0  0  0  0  0  0
    7.4331   -3.4572   24.9530 H   0  0  0  0  0  0  0  0  0  0  0  0
    1.4005   -2.7611   27.2145 H   0  0  0  0  0  0  0  0  0  0  0  0
    5.1390    0.6846   26.6830 H   0  0  0  0  0  0  0  0  0  0  0  0
    5.6448   -0.2528   28.1110 H   0  0  0  0  0  0  0  0  0  0  0  0
    3.1983    1.4954   27.7348 H   0  0  0  0  0  0  0  0  0  0  0  0
    4.0901    1.2012   29.2325 H   0  0  0  0  0  0  0  0  0  0  0  0
    1.6066    0.0096   28.6191 H   0  0  0  0  0  0  0  0  0  0  0  0
    2.8004   -0.7769   29.6963 H   0  0  0  0  0  0  0  0  0  0  0  0
  1  2  1  0
  2  3  1  0
  3  4  1  0
  4  5  2  0
  5  6  1  0
  6  7  1  0
  7  8  2  0
  7  9  2  0
  7 10  1  0
 10 11  1  0
 11 12  1  0
 12 13  1  0
 12 14  1  0
 12 15  1  0
 15 16  2  0
 16 17  1  0
 17 18  1  0
 18 19  2  0
 19 20  1  0
 20 21  1  0
 21 22  1  0
  6  2  2  0
 19 15  1  0
 22 18  1  0
  1 23  1  0
  1 24  1  0
  1 25  1  0
  3 26  1  0
  5 27  1  0
 10 28  1  0
 11 29  1  0
 11 30  1  0
 17 31  1  0
 20 32  1  0
 20 33  1  0
 21 34  1  0
 21 35  1  0
 22 36  1  0
 22 37  1  0
M  END
>  <Energy>  (363) 
285.69108694605183

>  <compound_id>  (363) 
46484

>  <target_id>  (363) 
1

>  <reference_id>  (363) 
7

>  <inspiration_ids>  (363) 
[122, 7]

>  <energy_score>  (363) 
170.401272701825

>  <distance_score>  (363) 
14.810823806075135

>  <path>  (363) 
/opt/xchem-fragalysis-2/maxwin/BulkDock/SCRATCH/511023/C46484-P7/C46484-P7.minimised.mol

>  <scratch_subdir>  (363) 
/opt/xchem-fragalysis-2/maxwin/BulkDock/SCRATCH/511023/C46484-P7

>  <fragmenstein_runtime>  (363) 
6.675070762634277

>  <fragmenstein_outcome>  (363) 
too moved

>  <fragmenstein_mode>  (363) 
expansion

>  <fragmenstein_error>  (363) 


$$$$
C18697-P122
     RDKit          3D

 28 29  0  0  0  0  0  0  0  0999 V2000
   -5.7278   -3.3577   29.6248 C   0  0  0  0  0  0  0  0  0  0  0  0
   -4.3986   -2.7636   28.8762 N   0  0  0  0  0  0  0  0  0  0  0  0
   -4.4179   -2.4266   27.6452 C   0  0  0  0  0  0  0  0  0  0  0  0
   -3.2271   -1.8914   27.0995 C   0  0  0  0  0  0  0  0  0  0  0  0
   -3.4592   -1.9038   25.6013 C   0  0  0  0  0  0  0  0  0  0  0  0
   -4.6505   -1.9797   25.6448 O   0  0  0  0  0  0  0  0  0  0  0  0
   -2.5229   -2.3097   23.8707 C   0  0  0  0  0  0  0  0  0  0  0  0
   -1.3544   -2.3028   22.4114 N   0  0  0  0  0  0  0  0  0  0  0  0
    0.4102   -3.0778   22.1307 C   0  0  0  0  0  0  0  0  0  0  0  0
    1.1452   -3.6239   22.8955 O   0  0  0  0  0  0  0  0  0  0  0  0
    1.0709   -3.2398   20.4472 C   0  0  0  0  0  0  0  0  0  0  0  0
    1.6023   -4.5482   20.0681 C   0  0  0  0  0  0  0  0  0  0  0  0
    1.8988   -4.4769   18.7265 C   0  0  0  0  0  0  0  0  0  0  0  0
    1.5422   -3.2207   18.3360 N   0  0  0  0  0  0  0  0  0  0  0  0
    0.9856   -2.4748   19.3201 N   0  0  0  0  0  0  0  0  0  0  0  0
   -2.3851   -1.9009   28.2476 C   0  0  0  0  0  0  0  0  0  0  0  0
   -2.9773   -2.5036   29.3557 N   0  0  0  0  0  0  0  0  0  0  0  0
   -5.8329   -4.4285   29.4759 H   0  0  0  0  0  0  0  0  0  0  0  0
   -6.6101   -3.0110   29.0670 H   0  0  0  0  0  0  0  0  0  0  0  0
   -5.6282   -3.0470   30.6686 H   0  0  0  0  0  0  0  0  0  0  0  0
   -5.2999   -2.7971   27.1940 H   0  0  0  0  0  0  0  0  0  0  0  0
   -2.5217   -3.3835   24.1730 H   0  0  0  0  0  0  0  0  0  0  0  0
   -3.3609   -2.4806   23.2329 H   0  0  0  0  0  0  0  0  0  0  0  0
   -1.6956   -1.8426   21.6061 H   0  0  0  0  0  0  0  0  0  0  0  0
    1.7420   -5.3887   20.7347 H   0  0  0  0  0  0  0  0  0  0  0  0
    2.3264   -5.1892   18.0357 H   0  0  0  0  0  0  0  0  0  0  0  0
    1.6309   -2.8027   17.4150 H   0  0  0  0  0  0  0  0  0  0  0  0
   -1.3338   -1.6587   28.3165 H   0  0  0  0  0  0  0  0  0  0  0  0
  1  2  1  0
  2  3  1  0
  3  4  2  0
  4  5  1  0
  5  6  2  0
  5  7  1  0
  7  8  1  0
  8  9  1  0
  9 10  2  0
  9 11  1  0
 11 12  1  0
 12 13  2  0
 13 14  1  0
 14 15  1  0
  4 16  1  0
 16 17  2  0
 17  2  1  0
 15 11  2  0
  1 18  1  0
  1 19  1  0
  1 20  1  0
  3 21  1  0
  7 22  1  0
  7 23  1  0
  8 24  1  0
 12 25  1  0
 13 26  1  0
 14 27  1  0
 16 28  1  0
M  END
>  <Energy>  (364) 
479.65409680615301

>  <compound_id>  (364) 
18697

>  <target_id>  (364) 
1

>  <reference_id>  (364) 
122

>  <inspiration_ids>  (364) 
[122, 7]

>  <energy_score>  (364) 
390.0603464383097

>  <distance_score>  (364) 
12.221568991392166

>  <path>  (364) 
/opt/xchem-fragalysis-2/maxwin/BulkDock/SCRATCH/511023/C18697-P122/C18697-P122.minimised.mol

>  <scratch_subdir>  (364) 
/opt/xchem-fragalysis-2/maxwin/BulkDock/SCRATCH/511023/C18697-P122

>  <fragmenstein_runtime>  (364) 
5.533624649047852

>  <fragmenstein_outcome>  (364) 
too moved

>  <fragmenstein_mode>  (364) 
expansion

>  <fragmenstein_error>  (364) 


$$$$
C18697-P7
     RDKit          3D

 28 29  0  0  0  0  0  0  0  0999 V2000
   -7.7687   -1.0888   34.9066 C   0  0  0  0  0  0  0  0  0  0  0  0
   -6.5678   -0.4500   34.4188 N   0  0  0  0  0  0  0  0  0  0  0  0
   -5.5857   -0.9921   33.6243 C   0  0  0  0  0  0  0  0  0  0  0  0
   -4.6841    0.0251   33.3516 C   0  0  0  0  0  0  0  0  0  0  0  0
   -3.4692    0.0599   32.5106 C   0  0  0  0  0  0  0  0  0  0  0  0
   -2.9472    1.1456   32.2359 O   0  0  0  0  0  0  0  0  0  0  0  0
   -2.7918   -1.2446   31.9941 C   0  0  0  0  0  0  0  0  0  0  0  0
   -1.6946   -1.1710   30.9921 N   0  0  0  0  0  0  0  0  0  0  0  0
   -0.8952   -2.2200   30.3751 C   0  0  0  0  0  0  0  0  0  0  0  0
   -0.8681   -3.3997   30.5796 O   0  0  0  0  0  0  0  0  0  0  0  0
    0.1076   -1.7238   29.3003 C   0  0  0  0  0  0  0  0  0  0  0  0
    0.6437   -0.4215   29.0329 C   0  0  0  0  0  0  0  0  0  0  0  0
    1.5442   -0.5630   27.9964 C   0  0  0  0  0  0  0  0  0  0  0  0
    1.5012   -1.8776   27.6499 N   0  0  0  0  0  0  0  0  0  0  0  0
    0.6924   -2.6036   28.4429 N   0  0  0  0  0  0  0  0  0  0  0  0
   -5.2200    1.1245   34.0729 C   0  0  0  0  0  0  0  0  0  0  0  0
   -6.3393    0.8333   34.7400 N   0  0  0  0  0  0  0  0  0  0  0  0
   -7.4929   -1.7880   35.6925 H   0  0  0  0  0  0  0  0  0  0  0  0
   -8.4435   -0.3302   35.3112 H   0  0  0  0  0  0  0  0  0  0  0  0
   -8.2429   -1.6025   34.0733 H   0  0  0  0  0  0  0  0  0  0  0  0
   -5.6347   -2.0195   33.2952 H   0  0  0  0  0  0  0  0  0  0  0  0
   -3.5547   -1.9021   31.5684 H   0  0  0  0  0  0  0  0  0  0  0  0
   -2.3708   -1.7639   32.8623 H   0  0  0  0  0  0  0  0  0  0  0  0
   -1.5169   -0.2951   30.5141 H   0  0  0  0  0  0  0  0  0  0  0  0
    0.4192    0.4984   29.5531 H   0  0  0  0  0  0  0  0  0  0  0  0
    2.1750    0.1401   27.4722 H   0  0  0  0  0  0  0  0  0  0  0  0
    1.9598   -2.3398   26.8667 H   0  0  0  0  0  0  0  0  0  0  0  0
   -4.8204    2.1301   34.1289 H   0  0  0  0  0  0  0  0  0  0  0  0
  1  2  1  0
  2  3  1  0
  3  4  2  0
  4  5  1  0
  5  6  2  0
  5  7  1  0
  7  8  1  0
  8  9  1  0
  9 10  2  0
  9 11  1  0
 11 12  1  0
 12 13  2  0
 13 14  1  0
 14 15  1  0
  4 16  1  0
 16 17  2  0
 17  2  1  0
 15 11  2  0
  1 18  1  0
  1 19  1  0
  1 20  1  0
  3 21  1  0
  7 22  1  0
  7 23  1  0
  8 24  1  0
 12 25  1  0
 13 26  1  0
 14 27  1  0
 16 28  1  0
M  END
>  <Energy>  (365) 
87.987365935726757

>  <compound_id>  (365) 
18697

>  <target_id>  (365) 
1

>  <reference_id>  (365) 
7

>  <inspiration_ids>  (365) 
[122, 7]

>  <energy_score>  (365) 
-1.606384432115874

>  <distance_score>  (365) 
12.968608512248359

>  <path>  (365) 
/opt/xchem-fragalysis-2/maxwin/BulkDock/SCRATCH/511023/C18697-P7/C18697-P7.minimised.mol

>  <scratch_subdir>  (365) 
/opt/xchem-fragalysis-2/maxwin/BulkDock/SCRATCH/511023/C18697-P7

>  <fragmenstein_runtime>  (365) 
9.861276149749756

>  <fragmenstein_outcome>  (365) 
too moved

>  <fragmenstein_mode>  (365) 
expansion

>  <fragmenstein_error>  (365) 


$$$$
C46485-P122
     RDKit          3D

 45 48  0  0  0  0  0  0  0  0999 V2000
   -5.5460   -1.2950   21.1228 O   0  0  0  0  0  0  0  0  0  0  0  0
   -4.6860   -2.3942   21.5297 S   0  0  0  0  0  0  0  0  0  0  0  0
   -3.4987   -2.0886   22.3148 O   0  0  0  0  0  0  0  0  0  0  0  0
   -5.7221   -3.5291   22.5656 C   0  0  0  0  0  0  0  0  0  0  0  0
   -6.4070   -2.9933   23.8784 C   0  0  0  0  0  0  0  0  0  0  0  0
   -7.1787   -1.8114   24.0770 C   0  0  0  0  0  0  0  0  0  0  0  0
   -7.7296   -1.8975   25.3400 C   0  0  0  0  0  0  0  0  0  0  0  0
   -7.3159   -3.0857   25.8614 N   0  0  0  0  0  0  0  0  0  0  0  0
   -7.6811   -3.6909   27.1478 C   0  0  0  0  0  0  0  0  0  0  0  0
   -8.7553   -4.7744   27.0051 C   0  0  0  0  0  0  0  0  0  0  0  0
  -10.0788   -4.0685   27.2804 C   0  0  0  0  0  0  0  0  0  0  0  0
   -9.7660   -2.9745   28.2857 C   0  0  0  0  0  0  0  0  0  0  0  0
   -8.2518   -2.7624   28.2407 C   0  0  0  0  0  0  0  0  0  0  0  0
   -6.4841   -3.7615   24.9988 N   0  0  0  0  0  0  0  0  0  0  0  0
   -4.1864   -3.2724   19.9714 C   0  0  0  0  0  0  0  0  0  0  0  0
   -2.8347   -2.9296   19.2779 C   0  0  0  0  0  0  0  0  0  0  0  0
   -1.8853   -3.8971   19.1333 N   0  0  0  0  0  0  0  0  0  0  0  0
   -0.8372   -3.3203   18.4862 N   0  0  0  0  0  0  0  0  0  0  0  0
   -1.1404   -2.0690   18.1035 C   0  0  0  0  0  0  0  0  0  0  0  0
   -2.4089   -1.8026   18.5402 C   0  0  0  0  0  0  0  0  0  0  0  0
   -2.8831   -0.4991   18.0388 C   0  0  0  0  0  0  0  0  0  0  0  0
   -1.6124    0.0665   17.2899 C   0  0  0  0  0  0  0  0  0  0  0  0
   -0.4881   -1.0362   17.2871 C   0  0  0  0  0  0  0  0  0  0  0  0
   -5.0671   -4.3675   22.8274 H   0  0  0  0  0  0  0  0  0  0  0  0
   -6.5160   -3.8903   21.9024 H   0  0  0  0  0  0  0  0  0  0  0  0
   -7.3476   -1.0110   23.3664 H   0  0  0  0  0  0  0  0  0  0  0  0
   -8.3928   -1.2261   25.8668 H   0  0  0  0  0  0  0  0  0  0  0  0
   -6.7452   -4.1336   27.5117 H   0  0  0  0  0  0  0  0  0  0  0  0
   -8.7572   -5.2667   26.0273 H   0  0  0  0  0  0  0  0  0  0  0  0
   -8.5959   -5.5497   27.7628 H   0  0  0  0  0  0  0  0  0  0  0  0
  -10.8460   -4.7590   27.6439 H   0  0  0  0  0  0  0  0  0  0  0  0
  -10.4533   -3.6184   26.3532 H   0  0  0  0  0  0  0  0  0  0  0  0
  -10.3023   -2.0533   28.0336 H   0  0  0  0  0  0  0  0  0  0  0  0
  -10.0873   -3.2667   29.2880 H   0  0  0  0  0  0  0  0  0  0  0  0
   -7.9996   -1.7085   28.0959 H   0  0  0  0  0  0  0  0  0  0  0  0
   -7.8312   -3.0516   29.2108 H   0  0  0  0  0  0  0  0  0  0  0  0
   -4.2076   -4.3393   20.2152 H   0  0  0  0  0  0  0  0  0  0  0  0
   -4.9972   -3.0897   19.2566 H   0  0  0  0  0  0  0  0  0  0  0  0
   -0.0006   -3.8710   18.3155 H   0  0  0  0  0  0  0  0  0  0  0  0
   -3.7095   -0.6274   17.3324 H   0  0  0  0  0  0  0  0  0  0  0  0
   -3.2027    0.1729   18.8397 H   0  0  0  0  0  0  0  0  0  0  0  0
   -1.8675    0.3642   16.2664 H   0  0  0  0  0  0  0  0  0  0  0  0
   -1.2498    0.9669   17.8000 H   0  0  0  0  0  0  0  0  0  0  0  0
    0.4338   -0.6606   17.7385 H   0  0  0  0  0  0  0  0  0  0  0  0
   -0.2897   -1.3832   16.2691 H   0  0  0  0  0  0  0  0  0  0  0  0
  1  2  2  0
  2  3  2  0
  2  4  1  0
  4  5  1  0
  5  6  1  0
  6  7  2  0
  7  8  1  0
  8  9  1  0
  9 10  1  0
 10 11  1  0
 11 12  1  0
 12 13  1  0
  8 14  1  0
  2 15  1  0
 15 16  1  0
 16 17  2  0
 17 18  1  0
 18 19  1  0
 19 20  2  0
 20 21  1  0
 21 22  1  0
 22 23  1  0
 14  5  2  0
 20 16  1  0
 13  9  1  0
 23 19  1  0
  4 24  1  0
  4 25  1  0
  6 26  1  0
  7 27  1  0
  9 28  1  0
 10 29  1  0
 10 30  1  0
 11 31  1  0
 11 32  1  0
 12 33  1  0
 12 34  1  0
 13 35  1  0
 13 36  1  0
 15 37  1  0
 15 38  1  0
 18 39  1  0
 21 40  1  0
 21 41  1  0
 22 42  1  0
 22 43  1  0
 23 44  1  0
 23 45  1  0
M  END
>  <Energy>  (366) 
92.43968953795904

>  <compound_id>  (366) 
46485

>  <target_id>  (366) 
1

>  <reference_id>  (366) 
122

>  <inspiration_ids>  (366) 
[122, 7]

>  <energy_score>  (366) 
-25.13050112877943

>  <distance_score>  (366) 
13.363909037697058

>  <path>  (366) 
/opt/xchem-fragalysis-2/maxwin/BulkDock/SCRATCH/511023/C46485-P122/C46485-P122.minimised.mol

>  <scratch_subdir>  (366) 
/opt/xchem-fragalysis-2/maxwin/BulkDock/SCRATCH/511023/C46485-P122

>  <fragmenstein_runtime>  (366) 
13.04931640625

>  <fragmenstein_outcome>  (366) 
too moved

>  <fragmenstein_mode>  (366) 
expansion

>  <fragmenstein_error>  (366) 


$$$$
C46485-P7
     RDKit          3D

 45 48  0  0  0  0  0  0  0  0999 V2000
    1.8535   -0.9952   31.1590 O   0  0  0  0  0  0  0  0  0  0  0  0
    1.1062   -0.9496   29.9144 S   0  0  0  0  0  0  0  0  0  0  0  0
    0.7349    0.3332   29.3358 O   0  0  0  0  0  0  0  0  0  0  0  0
   -0.4485   -1.8689   30.2009 C   0  0  0  0  0  0  0  0  0  0  0  0
   -1.4509   -1.3260   31.2372 C   0  0  0  0  0  0  0  0  0  0  0  0
   -1.9569   -0.0074   31.4023 C   0  0  0  0  0  0  0  0  0  0  0  0
   -2.8797   -0.0712   32.4247 C   0  0  0  0  0  0  0  0  0  0  0  0
   -2.8983   -1.3692   32.8411 N   0  0  0  0  0  0  0  0  0  0  0  0
   -3.6178   -1.9360   33.9796 C   0  0  0  0  0  0  0  0  0  0  0  0
   -3.7872   -1.0025   35.1958 C   0  0  0  0  0  0  0  0  0  0  0  0
   -5.2829   -0.6708   35.3100 C   0  0  0  0  0  0  0  0  0  0  0  0
   -5.9264   -1.1990   34.0409 C   0  0  0  0  0  0  0  0  0  0  0  0
   -5.0407   -2.3690   33.6373 C   0  0  0  0  0  0  0  0  0  0  0  0
   -2.1009   -2.1650   32.0790 N   0  0  0  0  0  0  0  0  0  0  0  0
    1.9871   -1.9171   28.6258 C   0  0  0  0  0  0  0  0  0  0  0  0
    3.4527   -1.6060   28.3151 C   0  0  0  0  0  0  0  0  0  0  0  0
    4.4358   -2.0575   29.1315 N   0  0  0  0  0  0  0  0  0  0  0  0
    5.6074   -1.7966   28.4872 N   0  0  0  0  0  0  0  0  0  0  0  0
    5.4058   -1.1929   27.3082 C   0  0  0  0  0  0  0  0  0  0  0  0
    4.0542   -1.1105   27.1348 C   0  0  0  0  0  0  0  0  0  0  0  0
    3.7623   -0.7003   25.7567 C   0  0  0  0  0  0  0  0  0  0  0  0
    5.1324   -0.9984   25.0452 C   0  0  0  0  0  0  0  0  0  0  0  0
    6.2332   -0.8711   26.1327 C   0  0  0  0  0  0  0  0  0  0  0  0
   -0.9526   -1.9224   29.2294 H   0  0  0  0  0  0  0  0  0  0  0  0
   -0.1438   -2.8804   30.4926 H   0  0  0  0  0  0  0  0  0  0  0  0
   -1.6620    0.8725   30.8451 H   0  0  0  0  0  0  0  0  0  0  0  0
   -3.4734    0.6887   32.9060 H   0  0  0  0  0  0  0  0  0  0  0  0
   -3.0249   -2.8093   34.2824 H   0  0  0  0  0  0  0  0  0  0  0  0
   -3.1819   -0.0926   35.1337 H   0  0  0  0  0  0  0  0  0  0  0  0
   -3.4711   -1.5221   36.1089 H   0  0  0  0  0  0  0  0  0  0  0  0
   -5.4486    0.4051   35.4261 H   0  0  0  0  0  0  0  0  0  0  0  0
   -5.7063   -1.1590   36.1929 H   0  0  0  0  0  0  0  0  0  0  0  0
   -5.9062   -0.4282   33.2619 H   0  0  0  0  0  0  0  0  0  0  0  0
   -6.9692   -1.4871   34.1973 H   0  0  0  0  0  0  0  0  0  0  0  0
   -5.1736   -2.6426   32.5865 H   0  0  0  0  0  0  0  0  0  0  0  0
   -5.2699   -3.2416   34.2562 H   0  0  0  0  0  0  0  0  0  0  0  0
    1.3906   -1.8072   27.7140 H   0  0  0  0  0  0  0  0  0  0  0  0
    1.9205   -2.9628   28.9492 H   0  0  0  0  0  0  0  0  0  0  0  0
    6.4744   -2.1081   28.9099 H   0  0  0  0  0  0  0  0  0  0  0  0
    2.9749   -1.3080   25.3231 H   0  0  0  0  0  0  0  0  0  0  0  0
    3.5140    0.3635   25.7055 H   0  0  0  0  0  0  0  0  0  0  0  0
    5.1014   -2.0284   24.6801 H   0  0  0  0  0  0  0  0  0  0  0  0
    5.3293   -0.3877   24.1690 H   0  0  0  0  0  0  0  0  0  0  0  0
    7.0683   -1.5528   25.9618 H   0  0  0  0  0  0  0  0  0  0  0  0
    6.6045    0.1541   26.2039 H   0  0  0  0  0  0  0  0  0  0  0  0
  1  2  2  0
  2  3  2  0
  2  4  1  0
  4  5  1  0
  5  6  1  0
  6  7  2  0
  7  8  1  0
  8  9  1  0
  9 10  1  0
 10 11  1  0
 11 12  1  0
 12 13  1  0
  8 14  1  0
  2 15  1  0
 15 16  1  0
 16 17  2  0
 17 18  1  0
 18 19  1  0
 19 20  2  0
 20 21  1  0
 21 22  1  0
 22 23  1  0
 14  5  2  0
 20 16  1  0
 13  9  1  0
 23 19  1  0
  4 24  1  0
  4 25  1  0
  6 26  1  0
  7 27  1  0
  9 28  1  0
 10 29  1  0
 10 30  1  0
 11 31  1  0
 11 32  1  0
 12 33  1  0
 12 34  1  0
 13 35  1  0
 13 36  1  0
 15 37  1  0
 15 38  1  0
 18 39  1  0
 21 40  1  0
 21 41  1  0
 22 42  1  0
 22 43  1  0
 23 44  1  0
 23 45  1  0
M  END
>  <Energy>  (367) 
87.45739251009509

>  <compound_id>  (367) 
46485

>  <target_id>  (367) 
1

>  <reference_id>  (367) 
7

>  <inspiration_ids>  (367) 
[122, 7]

>  <energy_score>  (367) 
-30.11279815664568

>  <distance_score>  (367) 
12.230310932215227

>  <path>  (367) 
/opt/xchem-fragalysis-2/maxwin/BulkDock/SCRATCH/511023/C46485-P7/C46485-P7.minimised.mol

>  <scratch_subdir>  (367) 
/opt/xchem-fragalysis-2/maxwin/BulkDock/SCRATCH/511023/C46485-P7

>  <fragmenstein_runtime>  (367) 
12.556136131286621

>  <fragmenstein_outcome>  (367) 
too moved

>  <fragmenstein_mode>  (367) 
expansion

>  <fragmenstein_error>  (367) 


$$$$
C18698-P122
     RDKit          3D

 49 51  0  0  0  0  0  0  0  0999 V2000
   -1.2709    0.8030   28.0734 C   0  0  0  0  0  0  0  0  0  0  0  0
   -0.2984    1.1355   29.1966 C   0  0  0  0  0  0  0  0  0  0  0  0
   -0.0123   -0.0393   30.1505 C   0  0  0  0  0  0  0  0  0  0  0  0
    0.6209   -1.2656   29.4123 C   0  0  0  0  0  0  0  0  0  0  0  0
    1.7393   -0.9990   28.4994 N   0  0  0  0  0  0  0  0  0  0  0  0
    3.1492   -0.8515   28.7510 C   0  0  0  0  0  0  0  0  0  0  0  0
    3.7601   -0.8301   29.7795 O   0  0  0  0  0  0  0  0  0  0  0  0
    3.9234   -0.7386   27.4562 C   0  0  0  0  0  0  0  0  0  0  0  0
    5.3317   -0.5552   27.2701 C   0  0  0  0  0  0  0  0  0  0  0  0
    5.5360   -0.4830   25.9104 C   0  0  0  0  0  0  0  0  0  0  0  0
    4.3004   -0.6290   25.3451 N   0  0  0  0  0  0  0  0  0  0  0  0
    3.3204   -0.8112   26.2561 N   0  0  0  0  0  0  0  0  0  0  0  0
   -1.2418   -0.3618   30.9330 N   0  0  0  0  0  0  0  0  0  0  0  0
   -1.8725    0.3322   32.0503 C   0  0  0  0  0  0  0  0  0  0  0  0
   -1.5176    1.2919   32.6705 O   0  0  0  0  0  0  0  0  0  0  0  0
   -3.2006   -0.3023   32.5059 C   0  0  0  0  0  0  0  0  0  0  0  0
   -3.7391   -1.5827   32.1979 C   0  0  0  0  0  0  0  0  0  0  0  0
   -4.9464   -1.6803   32.8540 C   0  0  0  0  0  0  0  0  0  0  0  0
   -5.0922   -0.5227   33.5600 N   0  0  0  0  0  0  0  0  0  0  0  0
   -6.0772   -0.2578   34.5991 C   0  0  0  0  0  0  0  0  0  0  0  0
   -7.3007   -1.1780   34.5959 C   0  0  0  0  0  0  0  0  0  0  0  0
   -8.2468   -0.5358   35.5968 C   0  0  0  0  0  0  0  0  0  0  0  0
   -8.0123    0.9637   35.4295 C   0  0  0  0  0  0  0  0  0  0  0  0
   -6.7492    1.1163   34.5608 C   0  0  0  0  0  0  0  0  0  0  0  0
   -4.0706    0.3390   33.3358 N   0  0  0  0  0  0  0  0  0  0  0  0
   -2.2117    0.4109   28.4666 H   0  0  0  0  0  0  0  0  0  0  0  0
   -0.8514    0.0628   27.3870 H   0  0  0  0  0  0  0  0  0  0  0  0
   -1.4960    1.7031   27.4923 H   0  0  0  0  0  0  0  0  0  0  0  0
   -0.7020    1.9745   29.7732 H   0  0  0  0  0  0  0  0  0  0  0  0
    0.6403    1.4921   28.7562 H   0  0  0  0  0  0  0  0  0  0  0  0
    0.7146    0.3243   30.8880 H   0  0  0  0  0  0  0  0  0  0  0  0
    0.9834   -1.9738   30.1663 H   0  0  0  0  0  0  0  0  0  0  0  0
   -0.1452   -1.7847   28.8255 H   0  0  0  0  0  0  0  0  0  0  0  0
    1.5857   -1.0554   27.4888 H   0  0  0  0  0  0  0  0  0  0  0  0
    6.0740   -0.4624   28.0514 H   0  0  0  0  0  0  0  0  0  0  0  0
    6.4165   -0.3196   25.3067 H   0  0  0  0  0  0  0  0  0  0  0  0
    4.0350   -0.5593   24.3574 H   0  0  0  0  0  0  0  0  0  0  0  0
   -1.7805   -1.1829   30.7088 H   0  0  0  0  0  0  0  0  0  0  0  0
   -3.3077   -2.3382   31.5606 H   0  0  0  0  0  0  0  0  0  0  0  0
   -5.6742   -2.4792   32.8870 H   0  0  0  0  0  0  0  0  0  0  0  0
   -5.5378   -0.3755   35.5493 H   0  0  0  0  0  0  0  0  0  0  0  0
   -7.0451   -2.1958   34.8668 H   0  0  0  0  0  0  0  0  0  0  0  0
   -7.7459   -1.2186   33.5974 H   0  0  0  0  0  0  0  0  0  0  0  0
   -7.9781   -0.8387   36.6156 H   0  0  0  0  0  0  0  0  0  0  0  0
   -9.2895   -0.8213   35.4324 H   0  0  0  0  0  0  0  0  0  0  0  0
   -8.8660    1.4542   34.9501 H   0  0  0  0  0  0  0  0  0  0  0  0
   -7.8711    1.4368   36.4075 H   0  0  0  0  0  0  0  0  0  0  0  0
   -6.0942    1.9098   34.9348 H   0  0  0  0  0  0  0  0  0  0  0  0
   -7.0342    1.3812   33.5347 H   0  0  0  0  0  0  0  0  0  0  0  0
  1  2  1  0
  2  3  1  0
  3  4  1  0
  4  5  1  0
  5  6  1  0
  6  7  2  0
  6  8  1  0
  8  9  1  0
  9 10  2  0
 10 11  1  0
 11 12  1  0
  3 13  1  0
 13 14  1  0
 14 15  2  0
 14 16  1  0
 16 17  1  0
 17 18  2  0
 18 19  1  0
 19 20  1  0
 20 21  1  0
 21 22  1  0
 22 23  1  0
 23 24  1  0
 19 25  1  0
 12  8  2  0
 25 16  2  0
 24 20  1  0
  1 26  1  0
  1 27  1  0
  1 28  1  0
  2 29  1  0
  2 30  1  0
  3 31  1  0
  4 32  1  0
  4 33  1  0
  5 34  1  0
  9 35  1  0
 10 36  1  0
 11 37  1  0
 13 38  1  0
 17 39  1  0
 18 40  1  0
 20 41  1  0
 21 42  1  0
 21 43  1  0
 22 44  1  0
 22 45  1  0
 23 46  1  0
 23 47  1  0
 24 48  1  0
 24 49  1  0
M  END
>  <Energy>  (368) 
93.91875342697287

>  <compound_id>  (368) 
18698

>  <target_id>  (368) 
1

>  <reference_id>  (368) 
122

>  <inspiration_ids>  (368) 
[122, 7]

>  <energy_score>  (368) 
-20.82251403070319

>  <distance_score>  (368) 
11.122255607424995

>  <path>  (368) 
/opt/xchem-fragalysis-2/maxwin/BulkDock/SCRATCH/511023/C18698-P122/C18698-P122.minimised.mol

>  <scratch_subdir>  (368) 
/opt/xchem-fragalysis-2/maxwin/BulkDock/SCRATCH/511023/C18698-P122

>  <fragmenstein_runtime>  (368) 
15.091734886169434

>  <fragmenstein_outcome>  (368) 
too moved

>  <fragmenstein_mode>  (368) 
expansion

>  <fragmenstein_error>  (368) 


$$$$
C18698-P7
     RDKit          3D

 49 51  0  0  0  0  0  0  0  0999 V2000
    5.1660   -0.5183   24.8373 C   0  0  0  0  0  0  0  0  0  0  0  0
    4.7599   -1.6554   23.8653 C   0  0  0  0  0  0  0  0  0  0  0  0
    3.2104   -2.3355   24.0431 C   0  0  0  0  0  0  0  0  0  0  0  0
    1.9423   -3.0538   22.6269 C   0  0  0  0  0  0  0  0  0  0  0  0
    1.1260   -2.9211   20.8590 N   0  0  0  0  0  0  0  0  0  0  0  0
    1.3078   -1.5622   19.4605 C   0  0  0  0  0  0  0  0  0  0  0  0
    1.9183   -0.4881   19.5004 O   0  0  0  0  0  0  0  0  0  0  0  0
    0.7475   -1.8140   17.9897 C   0  0  0  0  0  0  0  0  0  0  0  0
    0.8828   -0.8178   16.9638 C   0  0  0  0  0  0  0  0  0  0  0  0
    0.9751   -1.5061   15.7801 C   0  0  0  0  0  0  0  0  0  0  0  0
    0.8567   -2.8198   16.1090 N   0  0  0  0  0  0  0  0  0  0  0  0
    0.7052   -3.0449   17.4206 N   0  0  0  0  0  0  0  0  0  0  0  0
    2.7032   -1.5424   25.5052 N   0  0  0  0  0  0  0  0  0  0  0  0
    2.2360   -2.1072   26.8227 C   0  0  0  0  0  0  0  0  0  0  0  0
    2.1827   -3.2433   27.2080 O   0  0  0  0  0  0  0  0  0  0  0  0
    1.5869   -1.1393   27.8863 C   0  0  0  0  0  0  0  0  0  0  0  0
    1.2650    0.2509   27.8625 C   0  0  0  0  0  0  0  0  0  0  0  0
    0.3345    0.4772   28.8681 C   0  0  0  0  0  0  0  0  0  0  0  0
    0.1170   -0.7255   29.4712 N   0  0  0  0  0  0  0  0  0  0  0  0
   -0.7200   -1.0259   30.6300 C   0  0  0  0  0  0  0  0  0  0  0  0
   -1.7757    0.0148   31.0511 C   0  0  0  0  0  0  0  0  0  0  0  0
   -2.6515   -0.7203   32.0663 C   0  0  0  0  0  0  0  0  0  0  0  0
   -2.5737   -2.1903   31.6672 C   0  0  0  0  0  0  0  0  0  0  0  0
   -1.5976   -2.2718   30.4844 C   0  0  0  0  0  0  0  0  0  0  0  0
    0.9228   -1.6843   28.9606 N   0  0  0  0  0  0  0  0  0  0  0  0
    4.5530    0.3818   24.7524 H   0  0  0  0  0  0  0  0  0  0  0  0
    6.1978   -0.2163   24.6213 H   0  0  0  0  0  0  0  0  0  0  0  0
    5.1466   -0.8536   25.8788 H   0  0  0  0  0  0  0  0  0  0  0  0
    5.5577   -2.3503   24.0769 H   0  0  0  0  0  0  0  0  0  0  0  0
    4.9964   -1.3362   22.8475 H   0  0  0  0  0  0  0  0  0  0  0  0
    3.4334   -3.2676   24.5566 H   0  0  0  0  0  0  0  0  0  0  0  0
    2.7033   -3.6962   22.2623 H   0  0  0  0  0  0  0  0  0  0  0  0
    1.3053   -3.8558   22.9824 H   0  0  0  0  0  0  0  0  0  0  0  0
    0.6295   -3.7327   20.4938 H   0  0  0  0  0  0  0  0  0  0  0  0
    1.0464    0.2402   17.1198 H   0  0  0  0  0  0  0  0  0  0  0  0
    1.1404   -1.1847   14.7621 H   0  0  0  0  0  0  0  0  0  0  0  0
    0.8797   -3.6221   15.4896 H   0  0  0  0  0  0  0  0  0  0  0  0
    2.6901   -0.5425   25.5513 H   0  0  0  0  0  0  0  0  0  0  0  0
    1.6088    0.9873   27.1518 H   0  0  0  0  0  0  0  0  0  0  0  0
   -0.1793    1.3785   29.1694 H   0  0  0  0  0  0  0  0  0  0  0  0
   -0.0154   -1.1713   31.4609 H   0  0  0  0  0  0  0  0  0  0  0  0
   -2.3777    0.3261   30.1886 H   0  0  0  0  0  0  0  0  0  0  0  0
   -1.3221    0.9123   31.4833 H   0  0  0  0  0  0  0  0  0  0  0  0
   -3.6744   -0.3371   32.0773 H   0  0  0  0  0  0  0  0  0  0  0  0
   -2.2458   -0.5903   33.0765 H   0  0  0  0  0  0  0  0  0  0  0  0
   -3.5565   -2.5959   31.4184 H   0  0  0  0  0  0  0  0  0  0  0  0
   -2.1614   -2.7683   32.4976 H   0  0  0  0  0  0  0  0  0  0  0  0
   -2.1452   -2.2490   29.5348 H   0  0  0  0  0  0  0  0  0  0  0  0
   -1.0171   -3.2000   30.5061 H   0  0  0  0  0  0  0  0  0  0  0  0
  1  2  1  0
  2  3  1  0
  3  4  1  0
  4  5  1  0
  5  6  1  0
  6  7  2  0
  6  8  1  0
  8  9  1  0
  9 10  2  0
 10 11  1  0
 11 12  1  0
  3 13  1  0
 13 14  1  0
 14 15  2  0
 14 16  1  0
 16 17  1  0
 17 18  2  0
 18 19  1  0
 19 20  1  0
 20 21  1  0
 21 22  1  0
 22 23  1  0
 23 24  1  0
 19 25  1  0
 12  8  2  0
 25 16  2  0
 24 20  1  0
  1 26  1  0
  1 27  1  0
  1 28  1  0
  2 29  1  0
  2 30  1  0
  3 31  1  0
  4 32  1  0
  4 33  1  0
  5 34  1  0
  9 35  1  0
 10 36  1  0
 11 37  1  0
 13 38  1  0
 17 39  1  0
 18 40  1  0
 20 41  1  0
 21 42  1  0
 21 43  1  0
 22 44  1  0
 22 45  1  0
 23 46  1  0
 23 47  1  0
 24 48  1  0
 24 49  1  0
M  END
>  <Energy>  (369) 
436.72925533606889

>  <compound_id>  (369) 
18698

>  <target_id>  (369) 
1

>  <reference_id>  (369) 
7

>  <inspiration_ids>  (369) 
[122, 7]

>  <energy_score>  (369) 
321.98798787839445

>  <distance_score>  (369) 
13.853818797020505

>  <path>  (369) 
/opt/xchem-fragalysis-2/maxwin/BulkDock/SCRATCH/511023/C18698-P7/C18698-P7.minimised.mol

>  <scratch_subdir>  (369) 
/opt/xchem-fragalysis-2/maxwin/BulkDock/SCRATCH/511023/C18698-P7

>  <fragmenstein_runtime>  (369) 
16.466428756713867

>  <fragmenstein_outcome>  (369) 
too moved

>  <fragmenstein_mode>  (369) 
expansion

>  <fragmenstein_error>  (369) 


$$$$
C46486-P122
     RDKit          3D

 44 47  0  0  0  0  0  0  0  0999 V2000
    4.0219   -2.7778   21.0043 O   0  0  0  0  0  0  0  0  0  0  0  0
    4.8461   -1.7544   22.0167 S   0  0  0  0  0  0  0  0  0  0  0  0
    4.5194   -1.9051   24.1659 C   0  0  0  0  0  0  0  0  0  0  0  0
    3.5823   -1.3161   25.4763 C   0  0  0  0  0  0  0  0  0  0  0  0
    3.5526   -0.0367   26.1070 C   0  0  0  0  0  0  0  0  0  0  0  0
    2.7028   -0.0838   27.1967 C   0  0  0  0  0  0  0  0  0  0  0  0
    2.2874   -1.3838   27.2939 N   0  0  0  0  0  0  0  0  0  0  0  0
    1.4764   -1.8770   28.4197 C   0  0  0  0  0  0  0  0  0  0  0  0
    1.2037   -3.3778   28.5492 C   0  0  0  0  0  0  0  0  0  0  0  0
   -0.0574   -3.5203   29.4347 C   0  0  0  0  0  0  0  0  0  0  0  0
   -0.6273   -2.1188   29.6230 C   0  0  0  0  0  0  0  0  0  0  0  0
    0.0573   -1.2735   28.5503 C   0  0  0  0  0  0  0  0  0  0  0  0
    2.9731   -2.1682   26.3948 N   0  0  0  0  0  0  0  0  0  0  0  0
    5.9492   -0.6453   21.0172 C   0  0  0  0  0  0  0  0  0  0  0  0
    7.3072   -1.2586   20.6905 C   0  0  0  0  0  0  0  0  0  0  0  0
    7.6455   -2.4981   21.5876 N   0  0  0  0  0  0  0  0  0  0  0  0
    8.8008   -3.6473   21.0107 N   0  0  0  0  0  0  0  0  0  0  0  0
    9.7854   -2.6300   20.0271 C   0  0  0  0  0  0  0  0  0  0  0  0
    8.5350   -1.2613   19.2656 C   0  0  0  0  0  0  0  0  0  0  0  0
    8.7615   -0.6304   17.2576 C   0  0  0  0  0  0  0  0  0  0  0  0
   10.6518   -1.6216   16.8957 C   0  0  0  0  0  0  0  0  0  0  0  0
   11.5367   -2.7578   18.5099 C   0  0  0  0  0  0  0  0  0  0  0  0
    3.9105   -2.8035   24.0880 H   0  0  0  0  0  0  0  0  0  0  0  0
    5.5297   -2.0926   24.5263 H   0  0  0  0  0  0  0  0  0  0  0  0
    4.1122    0.8210   25.8218 H   0  0  0  0  0  0  0  0  0  0  0  0
    2.4096    0.6699   27.9119 H   0  0  0  0  0  0  0  0  0  0  0  0
    2.0491   -1.5756   29.3099 H   0  0  0  0  0  0  0  0  0  0  0  0
    1.0188   -3.8415   27.5800 H   0  0  0  0  0  0  0  0  0  0  0  0
    2.0578   -3.8972   28.9961 H   0  0  0  0  0  0  0  0  0  0  0  0
    0.1909   -3.9711   30.4015 H   0  0  0  0  0  0  0  0  0  0  0  0
   -0.7802   -4.1801   28.9449 H   0  0  0  0  0  0  0  0  0  0  0  0
   -0.3606   -1.7419   30.6173 H   0  0  0  0  0  0  0  0  0  0  0  0
   -1.7172   -2.0959   29.5358 H   0  0  0  0  0  0  0  0  0  0  0  0
    0.0839   -0.2152   28.8291 H   0  0  0  0  0  0  0  0  0  0  0  0
   -0.4871   -1.3511   27.6064 H   0  0  0  0  0  0  0  0  0  0  0  0
    5.4252   -0.5549   20.0572 H   0  0  0  0  0  0  0  0  0  0  0  0
    6.0233    0.3714   21.3875 H   0  0  0  0  0  0  0  0  0  0  0  0
    9.2017   -4.3359   21.6371 H   0  0  0  0  0  0  0  0  0  0  0  0
    8.0943   -0.9806   16.4602 H   0  0  0  0  0  0  0  0  0  0  0  0
    8.9907    0.4425   17.2900 H   0  0  0  0  0  0  0  0  0  0  0  0
   10.5218   -2.2932   16.0378 H   0  0  0  0  0  0  0  0  0  0  0  0
   11.3665   -0.8200   16.6561 H   0  0  0  0  0  0  0  0  0  0  0  0
   11.6058   -3.7171   17.8474 H   0  0  0  0  0  0  0  0  0  0  0  0
   12.6055   -2.8723   18.8554 H   0  0  0  0  0  0  0  0  0  0  0  0
  1  2  1  0
  2  3  1  0
  3  4  1  0
  4  5  1  0
  5  6  2  0
  6  7  1  0
  7  8  1  0
  8  9  1  0
  9 10  1  0
 10 11  1  0
 11 12  1  0
  7 13  1  0
  2 14  1  0
 14 15  1  0
 15 16  2  0
 16 17  1  0
 17 18  1  0
 18 19  2  0
 19 20  1  0
 20 21  1  0
 21 22  1  0
 13  4  2  0
 19 15  1  0
 12  8  1  0
 22 18  1  0
  3 23  1  0
  3 24  1  0
  5 25  1  0
  6 26  1  0
  8 27  1  0
  9 28  1  0
  9 29  1  0
 10 30  1  0
 10 31  1  0
 11 32  1  0
 11 33  1  0
 12 34  1  0
 12 35  1  0
 14 36  1  0
 14 37  1  0
 17 38  1  0
 20 39  1  0
 20 40  1  0
 21 41  1  0
 21 42  1  0
 22 43  1  0
 22 44  1  0
M  CHG  2   1  -1   2   1
M  END
>  <Energy>  (370) 
1019.9405724127884

>  <compound_id>  (370) 
46486

>  <target_id>  (370) 
1

>  <reference_id>  (370) 
122

>  <inspiration_ids>  (370) 
[122, 7]

>  <energy_score>  (370) 
910.1104439306324

>  <distance_score>  (370) 
14.583515289310274

>  <path>  (370) 
/opt/xchem-fragalysis-2/maxwin/BulkDock/SCRATCH/511023/C46486-P122/C46486-P122.minimised.mol

>  <scratch_subdir>  (370) 
/opt/xchem-fragalysis-2/maxwin/BulkDock/SCRATCH/511023/C46486-P122

>  <fragmenstein_runtime>  (370) 
7.074504375457764

>  <fragmenstein_outcome>  (370) 
too moved

>  <fragmenstein_mode>  (370) 
expansion

>  <fragmenstein_error>  (370) 


$$$$
C46486-P7
     RDKit          3D

 44 47  0  0  0  0  0  0  0  0999 V2000
    6.5183   -2.6414   21.9688 O   0  0  0  0  0  0  0  0  0  0  0  0
    5.0066   -1.8710   21.9750 S   0  0  0  0  0  0  0  0  0  0  0  0
    4.8015   -1.1300   24.1298 C   0  0  0  0  0  0  0  0  0  0  0  0
    3.6124   -1.3108   25.3301 C   0  0  0  0  0  0  0  0  0  0  0  0
    3.3880   -2.5522   25.9242 C   0  0  0  0  0  0  0  0  0  0  0  0
    2.6544   -2.4069   27.0758 C   0  0  0  0  0  0  0  0  0  0  0  0
    2.3039   -1.0916   27.1221 N   0  0  0  0  0  0  0  0  0  0  0  0
    1.4333   -0.5340   28.1789 C   0  0  0  0  0  0  0  0  0  0  0  0
    0.4454    0.5741   27.8024 C   0  0  0  0  0  0  0  0  0  0  0  0
   -0.5181    0.6466   29.0006 C   0  0  0  0  0  0  0  0  0  0  0  0
   -0.7474   -0.7984   29.4090 C   0  0  0  0  0  0  0  0  0  0  0  0
    0.4720   -1.5619   28.8772 C   0  0  0  0  0  0  0  0  0  0  0  0
    3.0604   -0.3599   26.1872 N   0  0  0  0  0  0  0  0  0  0  0  0
    5.4721   -0.4637   20.5472 C   0  0  0  0  0  0  0  0  0  0  0  0
    6.9078   -0.3371   19.5252 C   0  0  0  0  0  0  0  0  0  0  0  0
    6.6442    0.5055   18.4529 N   0  0  0  0  0  0  0  0  0  0  0  0
    7.5575    0.5060   17.4077 N   0  0  0  0  0  0  0  0  0  0  0  0
    8.6455   -0.2621   17.5874 C   0  0  0  0  0  0  0  0  0  0  0  0
    8.3855   -0.9292   19.3258 C   0  0  0  0  0  0  0  0  0  0  0  0
    9.6993   -2.4078   20.1063 C   0  0  0  0  0  0  0  0  0  0  0  0
   11.4632   -2.3789   18.4958 C   0  0  0  0  0  0  0  0  0  0  0  0
   10.5317   -1.0788   17.0046 C   0  0  0  0  0  0  0  0  0  0  0  0
    5.5903   -1.7381   24.5896 H   0  0  0  0  0  0  0  0  0  0  0  0
    5.0231   -0.0853   24.0648 H   0  0  0  0  0  0  0  0  0  0  0  0
    3.7972   -3.4247   25.4697 H   0  0  0  0  0  0  0  0  0  0  0  0
    2.3141   -3.1310   27.7971 H   0  0  0  0  0  0  0  0  0  0  0  0
    2.1323   -0.1467   28.9328 H   0  0  0  0  0  0  0  0  0  0  0  0
    0.9426    1.5307   27.6164 H   0  0  0  0  0  0  0  0  0  0  0  0
   -0.1319    0.3097   26.9155 H   0  0  0  0  0  0  0  0  0  0  0  0
   -1.4506    1.1600   28.7480 H   0  0  0  0  0  0  0  0  0  0  0  0
   -0.0411    1.1954   29.8213 H   0  0  0  0  0  0  0  0  0  0  0  0
   -1.6610   -1.1888   28.9464 H   0  0  0  0  0  0  0  0  0  0  0  0
   -0.8537   -0.8989   30.4935 H   0  0  0  0  0  0  0  0  0  0  0  0
    0.9931   -2.0848   29.6870 H   0  0  0  0  0  0  0  0  0  0  0  0
    0.1240   -2.3239   28.1699 H   0  0  0  0  0  0  0  0  0  0  0  0
    5.1321    0.5273   20.8719 H   0  0  0  0  0  0  0  0  0  0  0  0
    4.7366   -0.7923   19.7963 H   0  0  0  0  0  0  0  0  0  0  0  0
    7.3749    1.1339   16.6375 H   0  0  0  0  0  0  0  0  0  0  0  0
    9.0306   -3.4772   20.2031 H   0  0  0  0  0  0  0  0  0  0  0  0
    9.8880   -3.1044   21.1125 H   0  0  0  0  0  0  0  0  0  0  0  0
   12.5749   -2.4032   18.7009 H   0  0  0  0  0  0  0  0  0  0  0  0
   11.5610   -3.2652   17.7460 H   0  0  0  0  0  0  0  0  0  0  0  0
   11.1718   -0.2103   16.8190 H   0  0  0  0  0  0  0  0  0  0  0  0
   10.2811   -1.6839   16.1241 H   0  0  0  0  0  0  0  0  0  0  0  0
  1  2  1  0
  2  3  1  0
  3  4  1  0
  4  5  1  0
  5  6  2  0
  6  7  1  0
  7  8  1  0
  8  9  1  0
  9 10  1  0
 10 11  1  0
 11 12  1  0
  7 13  1  0
  2 14  1  0
 14 15  1  0
 15 16  2  0
 16 17  1  0
 17 18  1  0
 18 19  2  0
 19 20  1  0
 20 21  1  0
 21 22  1  0
 13  4  2  0
 19 15  1  0
 12  8  1  0
 22 18  1  0
  3 23  1  0
  3 24  1  0
  5 25  1  0
  6 26  1  0
  8 27  1  0
  9 28  1  0
  9 29  1  0
 10 30  1  0
 10 31  1  0
 11 32  1  0
 11 33  1  0
 12 34  1  0
 12 35  1  0
 14 36  1  0
 14 37  1  0
 17 38  1  0
 20 39  1  0
 20 40  1  0
 21 41  1  0
 21 42  1  0
 22 43  1  0
 22 44  1  0
M  CHG  2   1  -1   2   1
M  END
>  <Energy>  (371) 
963.12585422603217

>  <compound_id>  (371) 
46486

>  <target_id>  (371) 
1

>  <reference_id>  (371) 
7

>  <inspiration_ids>  (371) 
[122, 7]

>  <energy_score>  (371) 
853.2957257438858

>  <distance_score>  (371) 
14.722157182464334

>  <path>  (371) 
/opt/xchem-fragalysis-2/maxwin/BulkDock/SCRATCH/511023/C46486-P7/C46486-P7.minimised.mol

>  <scratch_subdir>  (371) 
/opt/xchem-fragalysis-2/maxwin/BulkDock/SCRATCH/511023/C46486-P7

>  <fragmenstein_runtime>  (371) 
8.428662776947021

>  <fragmenstein_outcome>  (371) 
too moved

>  <fragmenstein_mode>  (371) 
expansion

>  <fragmenstein_error>  (371) 


$$$$
C18699-P122
     RDKit          3D

 41 43  0  0  0  0  0  0  0  0999 V2000
    2.7682    1.8053   23.7116 C   0  0  0  0  0  0  0  0  0  0  0  0
    3.8487    0.6682   24.5347 N   0  0  0  0  0  0  0  0  0  0  0  0
    4.5502    0.4491   22.5996 C   0  0  0  0  0  0  0  0  0  0  0  0
    4.8262   -1.3450   22.1157 C   0  0  0  0  0  0  0  0  0  0  0  0
    5.2977   -1.8895   20.9073 C   0  0  0  0  0  0  0  0  0  0  0  0
    5.1887   -3.2565   21.0721 C   0  0  0  0  0  0  0  0  0  0  0  0
    4.8938   -3.4570   22.3760 N   0  0  0  0  0  0  0  0  0  0  0  0
    4.7861   -2.3204   23.0501 N   0  0  0  0  0  0  0  0  0  0  0  0
    3.5584   -0.7446   25.2192 C   0  0  0  0  0  0  0  0  0  0  0  0
    2.5520   -1.2430   25.1550 O   0  0  0  0  0  0  0  0  0  0  0  0
    4.6829   -1.1611   25.9811 N   0  0  0  0  0  0  0  0  0  0  0  0
    4.8256   -2.2010   26.9121 C   0  0  0  0  0  0  0  0  0  0  0  0
    4.1138   -3.4575   26.7745 C   0  0  0  0  0  0  0  0  0  0  0  0
    3.3207   -3.8208   27.8031 N   0  0  0  0  0  0  0  0  0  0  0  0
    3.3051   -2.7219   28.5734 N   0  0  0  0  0  0  0  0  0  0  0  0
    2.2123   -2.4777   29.5295 C   0  0  0  0  0  0  0  0  0  0  0  0
    1.4864   -3.6995   30.1373 C   0  0  0  0  0  0  0  0  0  0  0  0
    0.2196   -3.1120   30.7628 C   0  0  0  0  0  0  0  0  0  0  0  0
   -0.2150   -2.0298   29.7825 C   0  0  0  0  0  0  0  0  0  0  0  0
    1.0333   -1.6839   28.9367 C   0  0  0  0  0  0  0  0  0  0  0  0
    4.3536   -1.8605   28.2168 C   0  0  0  0  0  0  0  0  0  0  0  0
    1.8746    1.7177   24.3263 H   0  0  0  0  0  0  0  0  0  0  0  0
    2.6068    1.8946   22.6389 H   0  0  0  0  0  0  0  0  0  0  0  0
    2.9434    2.8391   24.0813 H   0  0  0  0  0  0  0  0  0  0  0  0
    5.4751    0.7896   22.0927 H   0  0  0  0  0  0  0  0  0  0  0  0
    3.8668    0.9485   21.9369 H   0  0  0  0  0  0  0  0  0  0  0  0
    5.6073   -1.3884   20.0108 H   0  0  0  0  0  0  0  0  0  0  0  0
    5.3374   -4.0934   20.4074 H   0  0  0  0  0  0  0  0  0  0  0  0
    4.7518   -4.3272   22.8781 H   0  0  0  0  0  0  0  0  0  0  0  0
    5.3917   -0.4751   25.8995 H   0  0  0  0  0  0  0  0  0  0  0  0
    4.0485   -4.0385   25.8638 H   0  0  0  0  0  0  0  0  0  0  0  0
    2.6631   -1.8981   30.3463 H   0  0  0  0  0  0  0  0  0  0  0  0
    2.1072   -4.2162   30.8757 H   0  0  0  0  0  0  0  0  0  0  0  0
    1.2142   -4.4238   29.3600 H   0  0  0  0  0  0  0  0  0  0  0  0
    0.4600   -2.6609   31.7326 H   0  0  0  0  0  0  0  0  0  0  0  0
   -0.5550   -3.8675   30.9222 H   0  0  0  0  0  0  0  0  0  0  0  0
   -0.5981   -1.1498   30.3089 H   0  0  0  0  0  0  0  0  0  0  0  0
   -1.0131   -2.3964   29.1273 H   0  0  0  0  0  0  0  0  0  0  0  0
    1.2344   -0.6073   28.9464 H   0  0  0  0  0  0  0  0  0  0  0  0
    0.8544   -1.9672   27.8926 H   0  0  0  0  0  0  0  0  0  0  0  0
    4.4171   -0.9131   28.7322 H   0  0  0  0  0  0  0  0  0  0  0  0
  1  2  1  0
  2  3  1  0
  3  4  1  0
  4  5  1  0
  5  6  2  0
  6  7  1  0
  7  8  1  0
  2  9  1  0
  9 10  2  0
  9 11  1  0
 11 12  1  0
 12 13  1  0
 13 14  2  0
 14 15  1  0
 15 16  1  0
 16 17  1  0
 17 18  1  0
 18 19  1  0
 19 20  1  0
 15 21  1  0
  8  4  2  0
 21 12  2  0
 20 16  1  0
  1 22  1  0
  1 23  1  0
  1 24  1  0
  3 25  1  0
  3 26  1  0
  5 27  1  0
  6 28  1  0
  7 29  1  0
 11 30  1  0
 13 31  1  0
 16 32  1  0
 17 33  1  0
 17 34  1  0
 18 35  1  0
 18 36  1  0
 19 37  1  0
 19 38  1  0
 20 39  1  0
 20 40  1  0
 21 41  1  0
M  END
>  <Energy>  (372) 
287.19678100381196

>  <compound_id>  (372) 
18699

>  <target_id>  (372) 
1

>  <reference_id>  (372) 
122

>  <inspiration_ids>  (372) 
[122, 7]

>  <energy_score>  (372) 
258.28875947929544

>  <distance_score>  (372) 
15.538452260580412

>  <path>  (372) 
/opt/xchem-fragalysis-2/maxwin/BulkDock/SCRATCH/511023/C18699-P122/C18699-P122.minimised.mol

>  <scratch_subdir>  (372) 
/opt/xchem-fragalysis-2/maxwin/BulkDock/SCRATCH/511023/C18699-P122

>  <fragmenstein_runtime>  (372) 
9.200428485870361

>  <fragmenstein_outcome>  (372) 
too moved

>  <fragmenstein_mode>  (372) 
expansion

>  <fragmenstein_error>  (372) 


$$$$
C18699-P7
     RDKit          3D

 41 43  0  0  0  0  0  0  0  0999 V2000
    2.5226    1.6416   27.5724 C   0  0  0  0  0  0  0  0  0  0  0  0
    1.6607    0.9374   28.5535 N   0  0  0  0  0  0  0  0  0  0  0  0
    2.9621    0.0329   28.7033 C   0  0  0  0  0  0  0  0  0  0  0  0
    3.6455   -0.6622   27.4887 C   0  0  0  0  0  0  0  0  0  0  0  0
    5.0219   -0.6520   27.1037 C   0  0  0  0  0  0  0  0  0  0  0  0
    5.0805   -1.3680   25.9286 C   0  0  0  0  0  0  0  0  0  0  0  0
    3.7918   -1.7080   25.6383 N   0  0  0  0  0  0  0  0  0  0  0  0
    2.9293   -1.3788   26.6201 N   0  0  0  0  0  0  0  0  0  0  0  0
    1.1723    1.3693   29.9037 C   0  0  0  0  0  0  0  0  0  0  0  0
    1.4408    2.3323   30.5225 O   0  0  0  0  0  0  0  0  0  0  0  0
    0.1819    0.2898   30.1862 N   0  0  0  0  0  0  0  0  0  0  0  0
   -0.7596    0.1673   31.2030 C   0  0  0  0  0  0  0  0  0  0  0  0
   -1.0524    1.1459   32.1863 C   0  0  0  0  0  0  0  0  0  0  0  0
   -2.0817    0.8247   32.9742 N   0  0  0  0  0  0  0  0  0  0  0  0
   -2.3716   -0.4400   32.6094 N   0  0  0  0  0  0  0  0  0  0  0  0
   -3.2177   -1.1917   33.5162 C   0  0  0  0  0  0  0  0  0  0  0  0
   -4.6196   -0.5972   33.7256 C   0  0  0  0  0  0  0  0  0  0  0  0
   -5.3559   -1.7280   34.4144 C   0  0  0  0  0  0  0  0  0  0  0  0
   -4.8822   -2.9478   33.6391 C   0  0  0  0  0  0  0  0  0  0  0  0
   -3.4508   -2.6675   33.1973 C   0  0  0  0  0  0  0  0  0  0  0  0
   -1.6584   -0.8422   31.4965 C   0  0  0  0  0  0  0  0  0  0  0  0
    1.9544    2.5676   27.3904 H   0  0  0  0  0  0  0  0  0  0  0  0
    3.4738    2.0527   27.9437 H   0  0  0  0  0  0  0  0  0  0  0  0
    2.5420    1.1933   26.5755 H   0  0  0  0  0  0  0  0  0  0  0  0
    3.7033    0.5550   29.3319 H   0  0  0  0  0  0  0  0  0  0  0  0
    2.6226   -0.7939   29.3458 H   0  0  0  0  0  0  0  0  0  0  0  0
    5.8477   -0.1781   27.6150 H   0  0  0  0  0  0  0  0  0  0  0  0
    5.8880   -1.6261   25.2627 H   0  0  0  0  0  0  0  0  0  0  0  0
    3.4096   -2.1570   24.8079 H   0  0  0  0  0  0  0  0  0  0  0  0
    0.2678   -0.4331   29.4834 H   0  0  0  0  0  0  0  0  0  0  0  0
   -0.5607    2.1010   32.3264 H   0  0  0  0  0  0  0  0  0  0  0  0
   -2.6907   -1.1530   34.4821 H   0  0  0  0  0  0  0  0  0  0  0  0
   -5.0922   -0.3474   32.7707 H   0  0  0  0  0  0  0  0  0  0  0  0
   -4.5994    0.3100   34.3379 H   0  0  0  0  0  0  0  0  0  0  0  0
   -6.4409   -1.5991   34.3884 H   0  0  0  0  0  0  0  0  0  0  0  0
   -5.0343   -1.7906   35.4593 H   0  0  0  0  0  0  0  0  0  0  0  0
   -4.9565   -3.8757   34.2114 H   0  0  0  0  0  0  0  0  0  0  0  0
   -5.4772   -3.0434   32.7279 H   0  0  0  0  0  0  0  0  0  0  0  0
   -3.3481   -2.9140   32.1363 H   0  0  0  0  0  0  0  0  0  0  0  0
   -2.7392   -3.2947   33.7463 H   0  0  0  0  0  0  0  0  0  0  0  0
   -1.8063   -1.8092   31.0423 H   0  0  0  0  0  0  0  0  0  0  0  0
  1  2  1  0
  2  3  1  0
  3  4  1  0
  4  5  1  0
  5  6  2  0
  6  7  1  0
  7  8  1  0
  2  9  1  0
  9 10  2  0
  9 11  1  0
 11 12  1  0
 12 13  1  0
 13 14  2  0
 14 15  1  0
 15 16  1  0
 16 17  1  0
 17 18  1  0
 18 19  1  0
 19 20  1  0
 15 21  1  0
  8  4  2  0
 21 12  2  0
 20 16  1  0
  1 22  1  0
  1 23  1  0
  1 24  1  0
  3 25  1  0
  3 26  1  0
  5 27  1  0
  6 28  1  0
  7 29  1  0
 11 30  1  0
 13 31  1  0
 16 32  1  0
 17 33  1  0
 17 34  1  0
 18 35  1  0
 18 36  1  0
 19 37  1  0
 19 38  1  0
 20 39  1  0
 20 40  1  0
 21 41  1  0
M  END
>  <Energy>  (373) 
65.693686744446268

>  <compound_id>  (373) 
18699

>  <target_id>  (373) 
1

>  <reference_id>  (373) 
7

>  <inspiration_ids>  (373) 
[122, 7]

>  <energy_score>  (373) 
36.785665219929456

>  <distance_score>  (373) 
12.615897368827525

>  <path>  (373) 
/opt/xchem-fragalysis-2/maxwin/BulkDock/SCRATCH/511023/C18699-P7/C18699-P7.minimised.mol

>  <scratch_subdir>  (373) 
/opt/xchem-fragalysis-2/maxwin/BulkDock/SCRATCH/511023/C18699-P7

>  <fragmenstein_runtime>  (373) 
11.010552644729614

>  <fragmenstein_outcome>  (373) 
too moved

>  <fragmenstein_mode>  (373) 
expansion

>  <fragmenstein_error>  (373) 


$$$$
C18700-P122
     RDKit          3D

 50 52  0  0  0  0  0  0  0  0999 V2000
    2.7536    3.4579   24.3914 C   0  0  0  0  0  0  0  0  0  0  0  0
    2.8058    1.8727   24.1234 C   0  0  0  0  0  0  0  0  0  0  0  0
    3.0435    1.1280   25.6896 C   0  0  0  0  0  0  0  0  0  0  0  0
    1.8938    1.4138   26.7471 N   0  0  0  0  0  0  0  0  0  0  0  0
    1.6830    0.3074   27.7728 C   0  0  0  0  0  0  0  0  0  0  0  0
    0.3638    0.3541   28.6919 C   0  0  0  0  0  0  0  0  0  0  0  0
   -0.8960    0.9882   28.4786 C   0  0  0  0  0  0  0  0  0  0  0  0
   -1.7067    0.6272   29.5396 C   0  0  0  0  0  0  0  0  0  0  0  0
   -0.9597   -0.1758   30.3502 N   0  0  0  0  0  0  0  0  0  0  0  0
   -1.3363   -0.7394   31.6541 C   0  0  0  0  0  0  0  0  0  0  0  0
   -1.9701    0.2602   32.6457 C   0  0  0  0  0  0  0  0  0  0  0  0
   -3.3755   -0.2620   32.9620 C   0  0  0  0  0  0  0  0  0  0  0  0
   -3.2603   -1.7644   32.8010 C   0  0  0  0  0  0  0  0  0  0  0  0
   -2.3107   -1.9365   31.6146 C   0  0  0  0  0  0  0  0  0  0  0  0
    0.2958   -0.3653   29.8470 N   0  0  0  0  0  0  0  0  0  0  0  0
    3.7519    1.5314   22.4812 N   0  0  0  0  0  0  0  0  0  0  0  0
    2.3725    1.6488   21.9322 C   0  0  0  0  0  0  0  0  0  0  0  0
    4.9181    0.0309   22.6751 C   0  0  0  0  0  0  0  0  0  0  0  0
    4.7006   -1.1432   22.4651 O   0  0  0  0  0  0  0  0  0  0  0  0
    6.4818    0.2173   23.0450 C   0  0  0  0  0  0  0  0  0  0  0  0
    7.2929   -0.7851   23.6548 C   0  0  0  0  0  0  0  0  0  0  0  0
    8.5399   -0.2257   23.7798 C   0  0  0  0  0  0  0  0  0  0  0  0
    8.4539    0.9967   23.1906 N   0  0  0  0  0  0  0  0  0  0  0  0
    7.2320    1.2895   22.7154 N   0  0  0  0  0  0  0  0  0  0  0  0
    1.8330    3.7092   24.9321 H   0  0  0  0  0  0  0  0  0  0  0  0
    2.7590    4.0323   23.4603 H   0  0  0  0  0  0  0  0  0  0  0  0
    3.5811    3.8023   25.0208 H   0  0  0  0  0  0  0  0  0  0  0  0
    1.7545    1.7632   24.0716 H   0  0  0  0  0  0  0  0  0  0  0  0
    3.9349    1.5174   26.1873 H   0  0  0  0  0  0  0  0  0  0  0  0
    3.1863    0.0506   25.5533 H   0  0  0  0  0  0  0  0  0  0  0  0
    1.0174    1.5398   26.2530 H   0  0  0  0  0  0  0  0  0  0  0  0
    1.6469   -0.6583   27.2561 H   0  0  0  0  0  0  0  0  0  0  0  0
    2.5464    0.3088   28.4478 H   0  0  0  0  0  0  0  0  0  0  0  0
   -1.1746    1.6243   27.6513 H   0  0  0  0  0  0  0  0  0  0  0  0
   -2.7212    0.8925   29.7834 H   0  0  0  0  0  0  0  0  0  0  0  0
   -0.3897   -1.0810   32.0960 H   0  0  0  0  0  0  0  0  0  0  0  0
   -1.9935    1.2914   32.2845 H   0  0  0  0  0  0  0  0  0  0  0  0
   -1.3798    0.2616   33.5711 H   0  0  0  0  0  0  0  0  0  0  0  0
   -3.7054    0.0260   33.9645 H   0  0  0  0  0  0  0  0  0  0  0  0
   -4.0894    0.1469   32.2443 H   0  0  0  0  0  0  0  0  0  0  0  0
   -4.2299   -2.2403   32.6300 H   0  0  0  0  0  0  0  0  0  0  0  0
   -2.8147   -2.2064   33.6997 H   0  0  0  0  0  0  0  0  0  0  0  0
   -1.7675   -2.8856   31.6848 H   0  0  0  0  0  0  0  0  0  0  0  0
   -2.8628   -1.9701   30.6775 H   0  0  0  0  0  0  0  0  0  0  0  0
    2.4512    2.3055   21.0350 H   0  0  0  0  0  0  0  0  0  0  0  0
    1.9277    0.9539   21.3030 H   0  0  0  0  0  0  0  0  0  0  0  0
    1.7906    2.5125   22.3131 H   0  0  0  0  0  0  0  0  0  0  0  0
    6.9615   -1.7608   23.9845 H   0  0  0  0  0  0  0  0  0  0  0  0
    9.4641   -0.5824   24.2131 H   0  0  0  0  0  0  0  0  0  0  0  0
    9.1872    1.6899   23.0884 H   0  0  0  0  0  0  0  0  0  0  0  0
  1  2  1  0
  2  3  1  0
  3  4  1  0
  4  5  1  0
  5  6  1  0
  6  7  1  0
  7  8  2  0
  8  9  1  0
  9 10  1  0
 10 11  1  0
 11 12  1  0
 12 13  1  0
 13 14  1  0
  9 15  1  0
  2 16  1  0
 16 17  1  0
 16 18  1  0
 18 19  2  0
 18 20  1  0
 20 21  1  0
 21 22  2  0
 22 23  1  0
 23 24  1  0
 15  6  2  0
 24 20  2  0
 14 10  1  0
  1 25  1  0
  1 26  1  0
  1 27  1  0
  2 28  1  0
  3 29  1  0
  3 30  1  0
  4 31  1  0
  5 32  1  0
  5 33  1  0
  7 34  1  0
  8 35  1  0
 10 36  1  0
 11 37  1  0
 11 38  1  0
 12 39  1  0
 12 40  1  0
 13 41  1  0
 13 42  1  0
 14 43  1  0
 14 44  1  0
 17 45  1  0
 17 46  1  0
 17 47  1  0
 21 48  1  0
 22 49  1  0
 23 50  1  0
M  END
>  <Energy>  (374) 
362.74946969256985

>  <compound_id>  (374) 
18700

>  <target_id>  (374) 
1

>  <reference_id>  (374) 
122

>  <inspiration_ids>  (374) 
[122, 7]

>  <energy_score>  (374) 
206.13377520859382

>  <distance_score>  (374) 
12.210320810291742

>  <path>  (374) 
/opt/xchem-fragalysis-2/maxwin/BulkDock/SCRATCH/511023/C18700-P122/C18700-P122.minimised.mol

>  <scratch_subdir>  (374) 
/opt/xchem-fragalysis-2/maxwin/BulkDock/SCRATCH/511023/C18700-P122

>  <fragmenstein_runtime>  (374) 
30.951297998428345

>  <fragmenstein_outcome>  (374) 
too moved

>  <fragmenstein_mode>  (374) 
expansion

>  <fragmenstein_error>  (374) 


$$$$
C18700-P7
     RDKit          3D

 50 52  0  0  0  0  0  0  0  0999 V2000
   -0.9179   -0.4469   28.9106 C   0  0  0  0  0  0  0  0  0  0  0  0
   -0.6256   -0.3080   30.4258 C   0  0  0  0  0  0  0  0  0  0  0  0
   -1.7091   -1.2596   31.2039 C   0  0  0  0  0  0  0  0  0  0  0  0
   -2.6043   -0.5155   32.1599 N   0  0  0  0  0  0  0  0  0  0  0  0
   -3.6481   -1.3780   32.8020 C   0  0  0  0  0  0  0  0  0  0  0  0
   -4.6555   -0.5890   33.6685 C   0  0  0  0  0  0  0  0  0  0  0  0
   -4.5425    0.7471   34.1332 C   0  0  0  0  0  0  0  0  0  0  0  0
   -5.6730    0.9902   34.8712 C   0  0  0  0  0  0  0  0  0  0  0  0
   -6.4007   -0.1677   34.8615 N   0  0  0  0  0  0  0  0  0  0  0  0
   -7.7030   -0.2937   35.4956 C   0  0  0  0  0  0  0  0  0  0  0  0
   -7.6742   -0.1673   37.0268 C   0  0  0  0  0  0  0  0  0  0  0  0
   -8.9873   -0.7947   37.5228 C   0  0  0  0  0  0  0  0  0  0  0  0
   -9.6233   -1.4574   36.3055 C   0  0  0  0  0  0  0  0  0  0  0  0
   -8.4757   -1.5893   35.3103 C   0  0  0  0  0  0  0  0  0  0  0  0
   -5.8068   -1.1458   34.1228 N   0  0  0  0  0  0  0  0  0  0  0  0
    0.9757   -0.4489   30.6858 N   0  0  0  0  0  0  0  0  0  0  0  0
    0.5631   -0.1013   32.0601 C   0  0  0  0  0  0  0  0  0  0  0  0
    1.4671   -1.6913   30.1348 C   0  0  0  0  0  0  0  0  0  0  0  0
    1.5767   -2.7787   30.6390 O   0  0  0  0  0  0  0  0  0  0  0  0
    2.0198   -1.5187   28.7153 C   0  0  0  0  0  0  0  0  0  0  0  0
    2.6911   -0.3654   28.1758 C   0  0  0  0  0  0  0  0  0  0  0  0
    3.1886   -0.7343   26.9474 C   0  0  0  0  0  0  0  0  0  0  0  0
    2.7773   -2.0186   26.7649 N   0  0  0  0  0  0  0  0  0  0  0  0
    2.1364   -2.5408   27.8350 N   0  0  0  0  0  0  0  0  0  0  0  0
   -1.9542   -0.1626   28.6951 H   0  0  0  0  0  0  0  0  0  0  0  0
   -0.7825   -1.4756   28.5629 H   0  0  0  0  0  0  0  0  0  0  0  0
   -0.2724    0.2141   28.3241 H   0  0  0  0  0  0  0  0  0  0  0  0
   -0.8990    0.7495   30.5916 H   0  0  0  0  0  0  0  0  0  0  0  0
   -2.3581   -1.7220   30.4530 H   0  0  0  0  0  0  0  0  0  0  0  0
   -1.2072   -2.0891   31.7140 H   0  0  0  0  0  0  0  0  0  0  0  0
   -2.0337   -0.1356   32.9146 H   0  0  0  0  0  0  0  0  0  0  0  0
   -3.1563   -2.1198   33.4425 H   0  0  0  0  0  0  0  0  0  0  0  0
   -4.2104   -1.9141   32.0303 H   0  0  0  0  0  0  0  0  0  0  0  0
   -3.7350    1.4419   33.9524 H   0  0  0  0  0  0  0  0  0  0  0  0
   -6.0094    1.8707   35.4014 H   0  0  0  0  0  0  0  0  0  0  0  0
   -8.3029    0.5312   35.0854 H   0  0  0  0  0  0  0  0  0  0  0  0
   -7.5829    0.8756   37.3487 H   0  0  0  0  0  0  0  0  0  0  0  0
   -6.8215   -0.7141   37.4486 H   0  0  0  0  0  0  0  0  0  0  0  0
   -8.7793   -1.5268   38.3104 H   0  0  0  0  0  0  0  0  0  0  0  0
   -9.6556   -0.0378   37.9467 H   0  0  0  0  0  0  0  0  0  0  0  0
  -10.0961   -2.4139   36.5424 H   0  0  0  0  0  0  0  0  0  0  0  0
  -10.4035   -0.8012   35.9041 H   0  0  0  0  0  0  0  0  0  0  0  0
   -7.8524   -2.4444   35.5611 H   0  0  0  0  0  0  0  0  0  0  0  0
   -8.8104   -1.7312   34.2859 H   0  0  0  0  0  0  0  0  0  0  0  0
    1.5363    0.0484   32.5543 H   0  0  0  0  0  0  0  0  0  0  0  0
    0.1707   -0.9360   32.6473 H   0  0  0  0  0  0  0  0  0  0  0  0
    0.0844    0.8742   32.2193 H   0  0  0  0  0  0  0  0  0  0  0  0
    2.8187    0.5897   28.6648 H   0  0  0  0  0  0  0  0  0  0  0  0
    3.7439   -0.2057   26.1853 H   0  0  0  0  0  0  0  0  0  0  0  0
    2.8327   -2.5735   25.9134 H   0  0  0  0  0  0  0  0  0  0  0  0
  1  2  1  0
  2  3  1  0
  3  4  1  0
  4  5  1  0
  5  6  1  0
  6  7  1  0
  7  8  2  0
  8  9  1  0
  9 10  1  0
 10 11  1  0
 11 12  1  0
 12 13  1  0
 13 14  1  0
  9 15  1  0
  2 16  1  0
 16 17  1  0
 16 18  1  0
 18 19  2  0
 18 20  1  0
 20 21  1  0
 21 22  2  0
 22 23  1  0
 23 24  1  0
 15  6  2  0
 24 20  2  0
 14 10  1  0
  1 25  1  0
  1 26  1  0
  1 27  1  0
  2 28  1  0
  3 29  1  0
  3 30  1  0
  4 31  1  0
  5 32  1  0
  5 33  1  0
  7 34  1  0
  8 35  1  0
 10 36  1  0
 11 37  1  0
 11 38  1  0
 12 39  1  0
 12 40  1  0
 13 41  1  0
 13 42  1  0
 14 43  1  0
 14 44  1  0
 17 45  1  0
 17 46  1  0
 17 47  1  0
 21 48  1  0
 22 49  1  0
 23 50  1  0
M  END
>  <Energy>  (375) 
186.6958025829401

>  <compound_id>  (375) 
18700

>  <target_id>  (375) 
1

>  <reference_id>  (375) 
7

>  <inspiration_ids>  (375) 
[122, 7]

>  <energy_score>  (375) 
30.080108098970697

>  <distance_score>  (375) 
11.382024506408197

>  <path>  (375) 
/opt/xchem-fragalysis-2/maxwin/BulkDock/SCRATCH/511023/C18700-P7/C18700-P7.minimised.mol

>  <scratch_subdir>  (375) 
/opt/xchem-fragalysis-2/maxwin/BulkDock/SCRATCH/511023/C18700-P7

>  <fragmenstein_runtime>  (375) 
21.643491744995117

>  <fragmenstein_outcome>  (375) 
too moved

>  <fragmenstein_mode>  (375) 
expansion

>  <fragmenstein_error>  (375) 


$$$$
C18701-P122
     RDKit          3D

 47 49  0  0  0  0  0  0  0  0999 V2000
    2.3335    0.6848   30.3692 O   0  0  0  0  0  0  0  0  0  0  0  0
    1.7466   -0.0458   29.6250 C   0  0  0  0  0  0  0  0  0  0  0  0
    0.3570   -0.4358   29.5909 N   0  0  0  0  0  0  0  0  0  0  0  0
   -0.7919    0.0142   30.3943 C   0  0  0  0  0  0  0  0  0  0  0  0
   -1.1066   -0.6601   31.7750 C   0  0  0  0  0  0  0  0  0  0  0  0
   -1.2900   -2.1858   31.6387 C   0  0  0  0  0  0  0  0  0  0  0  0
   -2.3488   -2.5430   30.7494 O   0  0  0  0  0  0  0  0  0  0  0  0
   -2.2775   -0.0053   32.4555 N   0  0  0  0  0  0  0  0  0  0  0  0
   -3.0223   -0.3845   33.6454 C   0  0  0  0  0  0  0  0  0  0  0  0
   -2.9415   -1.3537   34.3364 O   0  0  0  0  0  0  0  0  0  0  0  0
   -3.9843    0.6639   34.0521 C   0  0  0  0  0  0  0  0  0  0  0  0
   -3.7536    2.0311   34.1329 C   0  0  0  0  0  0  0  0  0  0  0  0
   -4.9543    2.6212   34.5475 C   0  0  0  0  0  0  0  0  0  0  0  0
   -5.9052    1.7161   34.7409 N   0  0  0  0  0  0  0  0  0  0  0  0
   -5.2464    0.5261   34.6374 N   0  0  0  0  0  0  0  0  0  0  0  0
   -5.8770   -0.6313   35.2741 C   0  0  0  0  0  0  0  0  0  0  0  0
   -7.2803   -0.9358   34.7285 C   0  0  0  0  0  0  0  0  0  0  0  0
   -8.2605   -0.3018   35.7079 C   0  0  0  0  0  0  0  0  0  0  0  0
   -7.5943   -0.4703   37.0604 C   0  0  0  0  0  0  0  0  0  0  0  0
   -6.0865   -0.3851   36.7889 C   0  0  0  0  0  0  0  0  0  0  0  0
    2.5101   -0.6134   28.4390 C   0  0  0  0  0  0  0  0  0  0  0  0
    3.8634   -0.3365   28.0440 C   0  0  0  0  0  0  0  0  0  0  0  0
    4.0652   -0.9956   26.8525 C   0  0  0  0  0  0  0  0  0  0  0  0
    2.8844   -1.6198   26.5772 N   0  0  0  0  0  0  0  0  0  0  0  0
    1.9388   -1.4354   27.5359 N   0  0  0  0  0  0  0  0  0  0  0  0
    0.1935   -1.0115   28.7617 H   0  0  0  0  0  0  0  0  0  0  0  0
   -1.6701   -0.0598   29.7424 H   0  0  0  0  0  0  0  0  0  0  0  0
   -0.6275    1.0833   30.5766 H   0  0  0  0  0  0  0  0  0  0  0  0
   -0.2559   -0.4897   32.4459 H   0  0  0  0  0  0  0  0  0  0  0  0
   -0.3696   -2.6525   31.2706 H   0  0  0  0  0  0  0  0  0  0  0  0
   -1.5114   -2.6392   32.6089 H   0  0  0  0  0  0  0  0  0  0  0  0
   -2.0179   -2.4198   29.8399 H   0  0  0  0  0  0  0  0  0  0  0  0
   -2.6681    0.8477   32.0789 H   0  0  0  0  0  0  0  0  0  0  0  0
   -2.8197    2.5310   33.9166 H   0  0  0  0  0  0  0  0  0  0  0  0
   -5.1762    3.6697   34.7018 H   0  0  0  0  0  0  0  0  0  0  0  0
   -5.2219   -1.4894   35.1068 H   0  0  0  0  0  0  0  0  0  0  0  0
   -7.4197   -0.5846   33.7024 H   0  0  0  0  0  0  0  0  0  0  0  0
   -7.4396   -2.0150   34.7317 H   0  0  0  0  0  0  0  0  0  0  0  0
   -8.3929    0.7617   35.4809 H   0  0  0  0  0  0  0  0  0  0  0  0
   -9.2457   -0.7765   35.6720 H   0  0  0  0  0  0  0  0  0  0  0  0
   -7.8473   -1.4414   37.4947 H   0  0  0  0  0  0  0  0  0  0  0  0
   -7.9207    0.2944   37.7724 H   0  0  0  0  0  0  0  0  0  0  0  0
   -5.5488   -1.1298   37.3848 H   0  0  0  0  0  0  0  0  0  0  0  0
   -5.7032    0.5893   37.1139 H   0  0  0  0  0  0  0  0  0  0  0  0
    4.5654    0.2981   28.5668 H   0  0  0  0  0  0  0  0  0  0  0  0
    4.9021   -1.0502   26.1715 H   0  0  0  0  0  0  0  0  0  0  0  0
    2.6223   -2.1514   25.7438 H   0  0  0  0  0  0  0  0  0  0  0  0
  1  2  2  0
  2  3  1  0
  3  4  1  0
  4  5  1  0
  5  6  1  0
  6  7  1  0
  5  8  1  0
  8  9  1  0
  9 10  2  0
  9 11  1  0
 11 12  2  0
 12 13  1  0
 13 14  2  0
 14 15  1  0
 15 16  1  0
 16 17  1  0
 17 18  1  0
 18 19  1  0
 19 20  1  0
  2 21  1  0
 21 22  1  0
 22 23  2  0
 23 24  1  0
 24 25  1  0
 15 11  1  0
 20 16  1  0
 25 21  2  0
  3 26  1  0
  4 27  1  0
  4 28  1  0
  5 29  1  0
  6 30  1  0
  6 31  1  0
  7 32  1  0
  8 33  1  0
 12 34  1  0
 13 35  1  0
 16 36  1  0
 17 37  1  0
 17 38  1  0
 18 39  1  0
 18 40  1  0
 19 41  1  0
 19 42  1  0
 20 43  1  0
 20 44  1  0
 22 45  1  0
 23 46  1  0
 24 47  1  0
M  END
>  <Energy>  (376) 
50.374151452677978

>  <compound_id>  (376) 
18701

>  <target_id>  (376) 
1

>  <reference_id>  (376) 
122

>  <inspiration_ids>  (376) 
[122, 7]

>  <energy_score>  (376) 
-25.73970131201861

>  <distance_score>  (376) 
11.608598597776862

>  <path>  (376) 
/opt/xchem-fragalysis-2/maxwin/BulkDock/SCRATCH/511023/C18701-P122/C18701-P122.minimised.mol

>  <scratch_subdir>  (376) 
/opt/xchem-fragalysis-2/maxwin/BulkDock/SCRATCH/511023/C18701-P122

>  <fragmenstein_runtime>  (376) 
24.057931661605835

>  <fragmenstein_outcome>  (376) 
too moved

>  <fragmenstein_mode>  (376) 
expansion

>  <fragmenstein_error>  (376) 


$$$$
C18701-P7
     RDKit          3D

 47 49  0  0  0  0  0  0  0  0999 V2000
    1.7888    0.6304   30.2944 O   0  0  0  0  0  0  0  0  0  0  0  0
    1.3568   -0.2306   29.5835 C   0  0  0  0  0  0  0  0  0  0  0  0
    0.0594   -0.8602   29.5513 N   0  0  0  0  0  0  0  0  0  0  0  0
   -1.1716   -0.5786   30.3129 C   0  0  0  0  0  0  0  0  0  0  0  0
   -1.1945   -0.9289   31.8354 C   0  0  0  0  0  0  0  0  0  0  0  0
   -1.2942   -2.4493   32.0838 C   0  0  0  0  0  0  0  0  0  0  0  0
   -2.4897   -3.0293   31.5572 O   0  0  0  0  0  0  0  0  0  0  0  0
   -2.2094   -0.1397   32.6128 N   0  0  0  0  0  0  0  0  0  0  0  0
   -3.5376   -0.4933   33.0793 C   0  0  0  0  0  0  0  0  0  0  0  0
   -4.1910   -1.4779   32.8936 O   0  0  0  0  0  0  0  0  0  0  0  0
   -4.1754    0.6002   33.8681 C   0  0  0  0  0  0  0  0  0  0  0  0
   -3.7428    1.8967   34.1336 C   0  0  0  0  0  0  0  0  0  0  0  0
   -4.8135    2.5708   34.7379 C   0  0  0  0  0  0  0  0  0  0  0  0
   -5.8651    1.7815   34.8951 N   0  0  0  0  0  0  0  0  0  0  0  0
   -5.4094    0.5517   34.5333 N   0  0  0  0  0  0  0  0  0  0  0  0
   -6.1636   -0.5837   35.0512 C   0  0  0  0  0  0  0  0  0  0  0  0
   -7.6015   -0.6548   34.5220 C   0  0  0  0  0  0  0  0  0  0  0  0
   -8.3768   -1.3428   35.6348 C   0  0  0  0  0  0  0  0  0  0  0  0
   -7.8048   -0.7300   36.8970 C   0  0  0  0  0  0  0  0  0  0  0  0
   -6.3191   -0.5175   36.5941 C   0  0  0  0  0  0  0  0  0  0  0  0
    2.2364   -0.7162   28.4418 C   0  0  0  0  0  0  0  0  0  0  0  0
    3.5201   -0.2147   28.0357 C   0  0  0  0  0  0  0  0  0  0  0  0
    3.8504   -0.8790   26.8758 C   0  0  0  0  0  0  0  0  0  0  0  0
    2.8026   -1.7147   26.6273 N   0  0  0  0  0  0  0  0  0  0  0  0
    1.8523   -1.6931   27.5967 N   0  0  0  0  0  0  0  0  0  0  0  0
    0.0191   -1.4990   28.7524 H   0  0  0  0  0  0  0  0  0  0  0  0
   -1.9928   -1.0784   29.7905 H   0  0  0  0  0  0  0  0  0  0  0  0
   -1.3322    0.5013   30.2087 H   0  0  0  0  0  0  0  0  0  0  0  0
   -0.2370   -0.5978   32.2571 H   0  0  0  0  0  0  0  0  0  0  0  0
   -0.4495   -2.9626   31.6131 H   0  0  0  0  0  0  0  0  0  0  0  0
   -1.2594   -2.6669   33.1568 H   0  0  0  0  0  0  0  0  0  0  0  0
   -3.2278   -2.5939   32.0391 H   0  0  0  0  0  0  0  0  0  0  0  0
   -1.9357    0.7361   33.0308 H   0  0  0  0  0  0  0  0  0  0  0  0
   -2.7991    2.3506   33.8689 H   0  0  0  0  0  0  0  0  0  0  0  0
   -4.8735    3.6070   35.0468 H   0  0  0  0  0  0  0  0  0  0  0  0
   -5.6244   -1.5011   34.7993 H   0  0  0  0  0  0  0  0  0  0  0  0
   -8.0137    0.3457   34.3453 H   0  0  0  0  0  0  0  0  0  0  0  0
   -7.6529   -1.2016   33.5766 H   0  0  0  0  0  0  0  0  0  0  0  0
   -9.4575   -1.2031   35.5668 H   0  0  0  0  0  0  0  0  0  0  0  0
   -8.1717   -2.4119   35.6006 H   0  0  0  0  0  0  0  0  0  0  0  0
   -7.9613   -1.3565   37.7795 H   0  0  0  0  0  0  0  0  0  0  0  0
   -8.2803    0.2397   37.0868 H   0  0  0  0  0  0  0  0  0  0  0  0
   -5.7087   -1.2952   37.0619 H   0  0  0  0  0  0  0  0  0  0  0  0
   -5.9782    0.4232   37.0404 H   0  0  0  0  0  0  0  0  0  0  0  0
    4.0827    0.5714   28.5196 H   0  0  0  0  0  0  0  0  0  0  0  0
    4.6799   -0.7959   26.1881 H   0  0  0  0  0  0  0  0  0  0  0  0
    2.6235   -2.2849   25.7985 H   0  0  0  0  0  0  0  0  0  0  0  0
  1  2  2  0
  2  3  1  0
  3  4  1  0
  4  5  1  0
  5  6  1  0
  6  7  1  0
  5  8  1  0
  8  9  1  0
  9 10  2  0
  9 11  1  0
 11 12  2  0
 12 13  1  0
 13 14  2  0
 14 15  1  0
 15 16  1  0
 16 17  1  0
 17 18  1  0
 18 19  1  0
 19 20  1  0
  2 21  1  0
 21 22  1  0
 22 23  2  0
 23 24  1  0
 24 25  1  0
 15 11  1  0
 20 16  1  0
 25 21  2  0
  3 26  1  0
  4 27  1  0
  4 28  1  0
  5 29  1  0
  6 30  1  0
  6 31  1  0
  7 32  1  0
  8 33  1  0
 12 34  1  0
 13 35  1  0
 16 36  1  0
 17 37  1  0
 17 38  1  0
 18 39  1  0
 18 40  1  0
 19 41  1  0
 19 42  1  0
 20 43  1  0
 20 44  1  0
 22 45  1  0
 23 46  1  0
 24 47  1  0
M  END
>  <Energy>  (377) 
42.191763949356258

>  <compound_id>  (377) 
18701

>  <target_id>  (377) 
1

>  <reference_id>  (377) 
7

>  <inspiration_ids>  (377) 
[122, 7]

>  <energy_score>  (377) 
-33.92208881534148

>  <distance_score>  (377) 
11.63387160931877

>  <path>  (377) 
/opt/xchem-fragalysis-2/maxwin/BulkDock/SCRATCH/511023/C18701-P7/C18701-P7.minimised.mol

>  <scratch_subdir>  (377) 
/opt/xchem-fragalysis-2/maxwin/BulkDock/SCRATCH/511023/C18701-P7

>  <fragmenstein_runtime>  (377) 
12.705462455749512

>  <fragmenstein_outcome>  (377) 
too moved

>  <fragmenstein_mode>  (377) 
expansion

>  <fragmenstein_error>  (377) 


$$$$
C46487-P122
     RDKit          3D

 43 46  0  0  0  0  0  0  0  0999 V2000
    0.3862    0.3346   29.2750 O   0  0  0  0  0  0  0  0  0  0  0  0
    0.2805   -0.8548   29.2109 C   0  0  0  0  0  0  0  0  0  0  0  0
    1.1960   -1.9679   28.3833 N   0  0  0  0  0  0  0  0  0  0  0  0
    2.4138   -1.7544   27.3529 C   0  0  0  0  0  0  0  0  0  0  0  0
    3.1999   -2.7661   26.6849 C   0  0  0  0  0  0  0  0  0  0  0  0
    4.1384   -2.2097   25.7582 C   0  0  0  0  0  0  0  0  0  0  0  0
    4.0906   -0.8881   25.8141 N   0  0  0  0  0  0  0  0  0  0  0  0
    3.0863   -0.6256   26.7612 N   0  0  0  0  0  0  0  0  0  0  0  0
    2.8551    0.7428   27.1847 C   0  0  0  0  0  0  0  0  0  0  0  0
    3.3601    1.8471   26.2498 C   0  0  0  0  0  0  0  0  0  0  0  0
    3.2974    3.0944   27.1220 C   0  0  0  0  0  0  0  0  0  0  0  0
    3.5755    2.6136   28.5459 C   0  0  0  0  0  0  0  0  0  0  0  0
    3.5688    1.0872   28.4926 C   0  0  0  0  0  0  0  0  0  0  0  0
   -1.0266   -1.3928   30.2306 C   0  0  0  0  0  0  0  0  0  0  0  0
   -1.7055   -2.6186   30.2215 N   0  0  0  0  0  0  0  0  0  0  0  0
   -2.6625   -2.8591   31.1857 N   0  0  0  0  0  0  0  0  0  0  0  0
   -2.8092   -1.7020   31.8002 C   0  0  0  0  0  0  0  0  0  0  0  0
   -1.8913   -0.7406   31.2491 C   0  0  0  0  0  0  0  0  0  0  0  0
   -2.0017    0.6527   31.7878 C   0  0  0  0  0  0  0  0  0  0  0  0
   -2.5554    0.7111   33.2157 C   0  0  0  0  0  0  0  0  0  0  0  0
   -3.8798   -0.0499   33.3381 C   0  0  0  0  0  0  0  0  0  0  0  0
   -3.7295   -1.5222   32.9521 C   0  0  0  0  0  0  0  0  0  0  0  0
    0.8853   -2.9017   28.6098 H   0  0  0  0  0  0  0  0  0  0  0  0
    3.0370   -3.8233   26.8337 H   0  0  0  0  0  0  0  0  0  0  0  0
    4.8172   -2.7140   25.0849 H   0  0  0  0  0  0  0  0  0  0  0  0
    1.7716    0.8598   27.2935 H   0  0  0  0  0  0  0  0  0  0  0  0
    4.3973    1.6745   25.9380 H   0  0  0  0  0  0  0  0  0  0  0  0
    2.7516    1.9478   25.3462 H   0  0  0  0  0  0  0  0  0  0  0  0
    2.2955    3.5370   27.0717 H   0  0  0  0  0  0  0  0  0  0  0  0
    4.0121    3.8567   26.7972 H   0  0  0  0  0  0  0  0  0  0  0  0
    2.8010    2.9841   29.2266 H   0  0  0  0  0  0  0  0  0  0  0  0
    4.5386    2.9837   28.9129 H   0  0  0  0  0  0  0  0  0  0  0  0
    3.0814    0.6507   29.3695 H   0  0  0  0  0  0  0  0  0  0  0  0
    4.6015    0.7151   28.4809 H   0  0  0  0  0  0  0  0  0  0  0  0
   -1.5365   -3.3571   29.5505 H   0  0  0  0  0  0  0  0  0  0  0  0
   -1.0225    1.1421   31.7533 H   0  0  0  0  0  0  0  0  0  0  0  0
   -2.6587    1.1697   31.0944 H   0  0  0  0  0  0  0  0  0  0  0  0
   -1.8256    0.2812   33.9136 H   0  0  0  0  0  0  0  0  0  0  0  0
   -2.7025    1.7558   33.5104 H   0  0  0  0  0  0  0  0  0  0  0  0
   -4.2655    0.0253   34.3611 H   0  0  0  0  0  0  0  0  0  0  0  0
   -4.6275    0.4177   32.6886 H   0  0  0  0  0  0  0  0  0  0  0  0
   -4.7150   -1.9481   32.7310 H   0  0  0  0  0  0  0  0  0  0  0  0
   -3.3241   -2.0755   33.8086 H   0  0  0  0  0  0  0  0  0  0  0  0
  1  2  2  0
  2  3  1  0
  3  4  1  0
  4  5  2  0
  5  6  1  0
  6  7  2  0
  7  8  1  0
  8  9  1  0
  9 10  1  0
 10 11  1  0
 11 12  1  0
 12 13  1  0
  2 14  1  0
 14 15  1  0
 15 16  1  0
 16 17  2  0
 17 18  1  0
 18 19  1  0
 19 20  1  0
 20 21  1  0
 21 22  1  0
  8  4  1  0
 13  9  1  0
 18 14  2  0
 22 17  1  0
  3 23  1  0
  5 24  1  0
  6 25  1  0
  9 26  1  0
 10 27  1  0
 10 28  1  0
 11 29  1  0
 11 30  1  0
 12 31  1  0
 12 32  1  0
 13 33  1  0
 13 34  1  0
 15 35  1  0
 19 36  1  0
 19 37  1  0
 20 38  1  0
 20 39  1  0
 21 40  1  0
 21 41  1  0
 22 42  1  0
 22 43  1  0
M  END
>  <Energy>  (378) 
122.73326542213313

>  <compound_id>  (378) 
46487

>  <target_id>  (378) 
1

>  <reference_id>  (378) 
122

>  <inspiration_ids>  (378) 
[122, 7]

>  <energy_score>  (378) 
38.14963399750786

>  <distance_score>  (378) 
13.34679589878306

>  <path>  (378) 
/opt/xchem-fragalysis-2/maxwin/BulkDock/SCRATCH/511023/C46487-P122/C46487-P122.minimised.mol

>  <scratch_subdir>  (378) 
/opt/xchem-fragalysis-2/maxwin/BulkDock/SCRATCH/511023/C46487-P122

>  <fragmenstein_runtime>  (378) 
10.95201563835144

>  <fragmenstein_outcome>  (378) 
too moved

>  <fragmenstein_mode>  (378) 
expansion

>  <fragmenstein_error>  (378) 


$$$$
C46487-P7
     RDKit          3D

 43 46  0  0  0  0  0  0  0  0999 V2000
    0.3599    0.3075   29.2229 O   0  0  0  0  0  0  0  0  0  0  0  0
    0.2901   -0.8860   29.2056 C   0  0  0  0  0  0  0  0  0  0  0  0
    1.2269   -2.0016   28.4063 N   0  0  0  0  0  0  0  0  0  0  0  0
    2.4223   -1.7909   27.3489 C   0  0  0  0  0  0  0  0  0  0  0  0
    3.1991   -2.8019   26.6701 C   0  0  0  0  0  0  0  0  0  0  0  0
    4.1335   -2.2445   25.7407 C   0  0  0  0  0  0  0  0  0  0  0  0
    4.0849   -0.9231   25.7960 N   0  0  0  0  0  0  0  0  0  0  0  0
    3.0884   -0.6599   26.7525 N   0  0  0  0  0  0  0  0  0  0  0  0
    2.8282    0.7176   27.1614 C   0  0  0  0  0  0  0  0  0  0  0  0
    3.3588    1.8013   26.2137 C   0  0  0  0  0  0  0  0  0  0  0  0
    4.7777    2.1182   26.6894 C   0  0  0  0  0  0  0  0  0  0  0  0
    4.9240    1.4830   28.0702 C   0  0  0  0  0  0  0  0  0  0  0  0
    3.5174    1.0665   28.4809 C   0  0  0  0  0  0  0  0  0  0  0  0
   -1.0028   -1.4227   30.2451 C   0  0  0  0  0  0  0  0  0  0  0  0
   -1.6727   -2.6533   30.2676 N   0  0  0  0  0  0  0  0  0  0  0  0
   -2.6333   -2.8743   31.2348 N   0  0  0  0  0  0  0  0  0  0  0  0
   -2.7816   -1.7061   31.8258 C   0  0  0  0  0  0  0  0  0  0  0  0
   -1.8588   -0.7588   31.2618 C   0  0  0  0  0  0  0  0  0  0  0  0
   -1.9462    0.6374   31.7902 C   0  0  0  0  0  0  0  0  0  0  0  0
   -2.5125    0.7225   33.2116 C   0  0  0  0  0  0  0  0  0  0  0  0
   -3.8429   -0.0271   33.3380 C   0  0  0  0  0  0  0  0  0  0  0  0
   -3.6987   -1.5059   32.9764 C   0  0  0  0  0  0  0  0  0  0  0  0
    0.8466   -2.9272   28.5424 H   0  0  0  0  0  0  0  0  0  0  0  0
    3.0388   -3.8591   26.8214 H   0  0  0  0  0  0  0  0  0  0  0  0
    4.8102   -2.7478   25.0648 H   0  0  0  0  0  0  0  0  0  0  0  0
    1.7412    0.8052   27.2363 H   0  0  0  0  0  0  0  0  0  0  0  0
    3.3298    1.5236   25.1554 H   0  0  0  0  0  0  0  0  0  0  0  0
    2.7444    2.7043   26.3241 H   0  0  0  0  0  0  0  0  0  0  0  0
    5.5264    1.7111   26.0011 H   0  0  0  0  0  0  0  0  0  0  0  0
    4.9330    3.2016   26.7334 H   0  0  0  0  0  0  0  0  0  0  0  0
    5.5745    0.6028   28.0064 H   0  0  0  0  0  0  0  0  0  0  0  0
    5.3734    2.1707   28.7931 H   0  0  0  0  0  0  0  0  0  0  0  0
    3.0084    1.9188   28.9480 H   0  0  0  0  0  0  0  0  0  0  0  0
    3.5328    0.2467   29.2056 H   0  0  0  0  0  0  0  0  0  0  0  0
   -1.4980   -3.4099   29.6185 H   0  0  0  0  0  0  0  0  0  0  0  0
   -0.9571    1.1073   31.7622 H   0  0  0  0  0  0  0  0  0  0  0  0
   -2.5805    1.1579   31.0816 H   0  0  0  0  0  0  0  0  0  0  0  0
   -1.7912    0.2987   33.9220 H   0  0  0  0  0  0  0  0  0  0  0  0
   -2.6537    1.7730   33.4885 H   0  0  0  0  0  0  0  0  0  0  0  0
   -4.5839    0.4346   32.6772 H   0  0  0  0  0  0  0  0  0  0  0  0
   -4.2335    0.0666   34.3577 H   0  0  0  0  0  0  0  0  0  0  0  0
   -4.6859   -1.9322   32.7643 H   0  0  0  0  0  0  0  0  0  0  0  0
   -3.2931   -2.0464   33.8409 H   0  0  0  0  0  0  0  0  0  0  0  0
  1  2  2  0
  2  3  1  0
  3  4  1  0
  4  5  2  0
  5  6  1  0
  6  7  2  0
  7  8  1  0
  8  9  1  0
  9 10  1  0
 10 11  1  0
 11 12  1  0
 12 13  1  0
  2 14  1  0
 14 15  1  0
 15 16  1  0
 16 17  2  0
 17 18  1  0
 18 19  1  0
 19 20  1  0
 20 21  1  0
 21 22  1  0
  8  4  1  0
 13  9  1  0
 18 14  2  0
 22 17  1  0
  3 23  1  0
  5 24  1  0
  6 25  1  0
  9 26  1  0
 10 27  1  0
 10 28  1  0
 11 29  1  0
 11 30  1  0
 12 31  1  0
 12 32  1  0
 13 33  1  0
 13 34  1  0
 15 35  1  0
 19 36  1  0
 19 37  1  0
 20 38  1  0
 20 39  1  0
 21 40  1  0
 21 41  1  0
 22 42  1  0
 22 43  1  0
M  END
>  <Energy>  (379) 
122.04174450847255

>  <compound_id>  (379) 
46487

>  <target_id>  (379) 
1

>  <reference_id>  (379) 
7

>  <inspiration_ids>  (379) 
[122, 7]

>  <energy_score>  (379) 
37.458113083849355

>  <distance_score>  (379) 
13.34990762717571

>  <path>  (379) 
/opt/xchem-fragalysis-2/maxwin/BulkDock/SCRATCH/511023/C46487-P7/C46487-P7.minimised.mol

>  <scratch_subdir>  (379) 
/opt/xchem-fragalysis-2/maxwin/BulkDock/SCRATCH/511023/C46487-P7

>  <fragmenstein_runtime>  (379) 
9.185017585754395

>  <fragmenstein_outcome>  (379) 
too moved

>  <fragmenstein_mode>  (379) 
expansion

>  <fragmenstein_error>  (379) 


$$$$
C18702-P122
     RDKit          3D

 33 35  0  0  0  0  0  0  0  0999 V2000
    1.1530    0.8787   27.7479 O   0  0  0  0  0  0  0  0  0  0  0  0
    1.1816   -0.3050   27.8867 C   0  0  0  0  0  0  0  0  0  0  0  0
    2.2149   -1.4199   27.2635 N   0  0  0  0  0  0  0  0  0  0  0  0
    3.3959   -1.2531   26.2236 C   0  0  0  0  0  0  0  0  0  0  0  0
    4.2503   -2.2729   25.6905 C   0  0  0  0  0  0  0  0  0  0  0  0
    5.2306   -1.7280   24.8104 C   0  0  0  0  0  0  0  0  0  0  0  0
    5.0195   -0.4371   24.6286 N   0  0  0  0  0  0  0  0  0  0  0  0
    3.9750   -0.1455   25.5102 N   0  0  0  0  0  0  0  0  0  0  0  0
    3.6925    1.2508   25.7851 C   0  0  0  0  0  0  0  0  0  0  0  0
    4.5150    1.8139   26.9501 C   0  0  0  0  0  0  0  0  0  0  0  0
    4.6818    3.3083   26.6636 C   0  0  0  0  0  0  0  0  0  0  0  0
    3.9472    3.5761   25.3549 C   0  0  0  0  0  0  0  0  0  0  0  0
    3.9612    2.2339   24.6408 C   0  0  0  0  0  0  0  0  0  0  0  0
   -0.1091   -0.8140   28.9617 C   0  0  0  0  0  0  0  0  0  0  0  0
   -1.0666    0.1338   29.6825 C   0  0  0  0  0  0  0  0  0  0  0  0
   -1.9406   -0.5834   30.4842 C   0  0  0  0  0  0  0  0  0  0  0  0
   -1.6233   -1.8762   30.2115 N   0  0  0  0  0  0  0  0  0  0  0  0
   -0.5346   -2.0501   29.3690 N   0  0  0  0  0  0  0  0  0  0  0  0
    1.9054   -2.3526   27.5168 H   0  0  0  0  0  0  0  0  0  0  0  0
    4.1695   -3.3124   25.9750 H   0  0  0  0  0  0  0  0  0  0  0  0
    6.0631   -2.2071   24.3180 H   0  0  0  0  0  0  0  0  0  0  0  0
    2.6334    1.3276   26.0264 H   0  0  0  0  0  0  0  0  0  0  0  0
    4.0088    1.6456   27.9069 H   0  0  0  0  0  0  0  0  0  0  0  0
    5.5010    1.3388   27.0219 H   0  0  0  0  0  0  0  0  0  0  0  0
    4.2877    3.9262   27.4767 H   0  0  0  0  0  0  0  0  0  0  0  0
    5.7464    3.5463   26.5564 H   0  0  0  0  0  0  0  0  0  0  0  0
    4.4215    4.3673   24.7672 H   0  0  0  0  0  0  0  0  0  0  0  0
    2.9144    3.8811   25.5619 H   0  0  0  0  0  0  0  0  0  0  0  0
    4.9418    2.0752   24.1771 H   0  0  0  0  0  0  0  0  0  0  0  0
    3.2018    2.1745   23.8554 H   0  0  0  0  0  0  0  0  0  0  0  0
   -1.0097    1.2097   29.5772 H   0  0  0  0  0  0  0  0  0  0  0  0
   -2.7293   -0.2947   31.1611 H   0  0  0  0  0  0  0  0  0  0  0  0
   -2.0645   -2.7162   30.5683 H   0  0  0  0  0  0  0  0  0  0  0  0
  1  2  2  0
  2  3  1  0
  3  4  1  0
  4  5  2  0
  5  6  1  0
  6  7  2  0
  7  8  1  0
  8  9  1  0
  9 10  1  0
 10 11  1  0
 11 12  1  0
 12 13  1  0
  2 14  1  0
 14 15  1  0
 15 16  2  0
 16 17  1  0
 17 18  1  0
  8  4  1  0
 13  9  1  0
 18 14  2  0
  3 19  1  0
  5 20  1  0
  6 21  1  0
  9 22  1  0
 10 23  1  0
 10 24  1  0
 11 25  1  0
 11 26  1  0
 12 27  1  0
 12 28  1  0
 13 29  1  0
 13 30  1  0
 15 31  1  0
 16 32  1  0
 17 33  1  0
M  END
>  <Energy>  (380) 
150.4978908046659

>  <compound_id>  (380) 
18702

>  <target_id>  (380) 
1

>  <reference_id>  (380) 
122

>  <inspiration_ids>  (380) 
[122, 7]

>  <energy_score>  (380) 
47.369365002301834

>  <distance_score>  (380) 
13.192815941278397

>  <path>  (380) 
/opt/xchem-fragalysis-2/maxwin/BulkDock/SCRATCH/511023/C18702-P122/C18702-P122.minimised.mol

>  <scratch_subdir>  (380) 
/opt/xchem-fragalysis-2/maxwin/BulkDock/SCRATCH/511023/C18702-P122

>  <fragmenstein_runtime>  (380) 
6.92741060256958

>  <fragmenstein_outcome>  (380) 
too moved

>  <fragmenstein_mode>  (380) 
expansion

>  <fragmenstein_error>  (380) 


$$$$
C18702-P7
     RDKit          3D

 33 35  0  0  0  0  0  0  0  0999 V2000
    1.4312    0.5594   27.6761 O   0  0  0  0  0  0  0  0  0  0  0  0
    1.3659   -0.6295   27.7529 C   0  0  0  0  0  0  0  0  0  0  0  0
    2.2872   -1.7905   27.0392 N   0  0  0  0  0  0  0  0  0  0  0  0
    3.4573   -1.6630   25.9639 C   0  0  0  0  0  0  0  0  0  0  0  0
    4.1446   -2.7388   25.3079 C   0  0  0  0  0  0  0  0  0  0  0  0
    5.0816   -2.2719   24.3403 C   0  0  0  0  0  0  0  0  0  0  0  0
    5.0875   -0.9485   24.3151 N   0  0  0  0  0  0  0  0  0  0  0  0
    4.1199   -0.5919   25.2721 N   0  0  0  0  0  0  0  0  0  0  0  0
    3.9583    0.8232   25.5703 C   0  0  0  0  0  0  0  0  0  0  0  0
    3.9554    1.7370   24.3300 C   0  0  0  0  0  0  0  0  0  0  0  0
    5.2712    2.5001   24.3958 C   0  0  0  0  0  0  0  0  0  0  0  0
    5.4868    2.6905   25.8870 C   0  0  0  0  0  0  0  0  0  0  0  0
    5.0794    1.3491   26.4818 C   0  0  0  0  0  0  0  0  0  0  0  0
    0.0177   -1.0925   28.7875 C   0  0  0  0  0  0  0  0  0  0  0  0
   -0.9224   -0.1117   29.4929 C   0  0  0  0  0  0  0  0  0  0  0  0
   -1.8574   -0.7980   30.2528 C   0  0  0  0  0  0  0  0  0  0  0  0
   -1.5726   -2.0999   29.9920 N   0  0  0  0  0  0  0  0  0  0  0  0
   -0.4647   -2.3127   29.1827 N   0  0  0  0  0  0  0  0  0  0  0  0
    1.9094   -2.7066   27.2536 H   0  0  0  0  0  0  0  0  0  0  0  0
    3.9262   -3.7776   25.5110 H   0  0  0  0  0  0  0  0  0  0  0  0
    5.7204   -2.8438   23.6808 H   0  0  0  0  0  0  0  0  0  0  0  0
    2.9967    0.9372   26.0620 H   0  0  0  0  0  0  0  0  0  0  0  0
    3.1260    2.4511   24.4144 H   0  0  0  0  0  0  0  0  0  0  0  0
    3.8312    1.2098   23.3791 H   0  0  0  0  0  0  0  0  0  0  0  0
    6.0823    1.9004   23.9667 H   0  0  0  0  0  0  0  0  0  0  0  0
    5.2259    3.4509   23.8573 H   0  0  0  0  0  0  0  0  0  0  0  0
    4.8328    3.4848   26.2662 H   0  0  0  0  0  0  0  0  0  0  0  0
    6.5201    2.9547   26.1292 H   0  0  0  0  0  0  0  0  0  0  0  0
    4.7398    1.4581   27.5172 H   0  0  0  0  0  0  0  0  0  0  0  0
    5.9434    0.6733   26.4939 H   0  0  0  0  0  0  0  0  0  0  0  0
   -0.8186    0.9618   29.3993 H   0  0  0  0  0  0  0  0  0  0  0  0
   -2.6585   -0.4809   30.9015 H   0  0  0  0  0  0  0  0  0  0  0  0
   -2.0519   -2.9237   30.3353 H   0  0  0  0  0  0  0  0  0  0  0  0
  1  2  2  0
  2  3  1  0
  3  4  1  0
  4  5  2  0
  5  6  1  0
  6  7  2  0
  7  8  1  0
  8  9  1  0
  9 10  1  0
 10 11  1  0
 11 12  1  0
 12 13  1  0
  2 14  1  0
 14 15  1  0
 15 16  2  0
 16 17  1  0
 17 18  1  0
  8  4  1  0
 13  9  1  0
 18 14  2  0
  3 19  1  0
  5 20  1  0
  6 21  1  0
  9 22  1  0
 10 23  1  0
 10 24  1  0
 11 25  1  0
 11 26  1  0
 12 27  1  0
 12 28  1  0
 13 29  1  0
 13 30  1  0
 15 31  1  0
 16 32  1  0
 17 33  1  0
M  END
>  <Energy>  (381) 
153.57323458596099

>  <compound_id>  (381) 
18702

>  <target_id>  (381) 
1

>  <reference_id>  (381) 
7

>  <inspiration_ids>  (381) 
[122, 7]

>  <energy_score>  (381) 
50.44470878360028

>  <distance_score>  (381) 
13.175173064964323

>  <path>  (381) 
/opt/xchem-fragalysis-2/maxwin/BulkDock/SCRATCH/511023/C18702-P7/C18702-P7.minimised.mol

>  <scratch_subdir>  (381) 
/opt/xchem-fragalysis-2/maxwin/BulkDock/SCRATCH/511023/C18702-P7

>  <fragmenstein_runtime>  (381) 
5.81169056892395

>  <fragmenstein_outcome>  (381) 
too moved

>  <fragmenstein_mode>  (381) 
expansion

>  <fragmenstein_error>  (381) 


$$$$
C18703-P122
     RDKit          3D

 49 51  0  0  0  0  0  0  0  0999 V2000
    1.2056   -2.0038   28.2798 C   0  0  0  0  0  0  0  0  0  0  0  0
    0.9765   -3.4416   28.7391 C   0  0  0  0  0  0  0  0  0  0  0  0
    2.2608   -4.3160   28.4917 C   0  0  0  0  0  0  0  0  0  0  0  0
    2.7269   -4.6333   27.1355 N   0  0  0  0  0  0  0  0  0  0  0  0
    3.3772   -5.8196   26.6071 C   0  0  0  0  0  0  0  0  0  0  0  0
    3.6255   -6.8700   27.1271 O   0  0  0  0  0  0  0  0  0  0  0  0
    3.8861   -5.6503   25.1864 C   0  0  0  0  0  0  0  0  0  0  0  0
    4.8187   -6.5056   24.5038 C   0  0  0  0  0  0  0  0  0  0  0  0
    5.0855   -5.9076   23.2945 C   0  0  0  0  0  0  0  0  0  0  0  0
    4.3370   -4.7729   23.2904 N   0  0  0  0  0  0  0  0  0  0  0  0
    3.5686   -4.6157   24.3839 N   0  0  0  0  0  0  0  0  0  0  0  0
    0.6505   -3.4607   30.2721 C   0  0  0  0  0  0  0  0  0  0  0  0
   -0.5626   -2.8359   30.8207 N   0  0  0  0  0  0  0  0  0  0  0  0
   -1.4819   -3.2876   31.8520 C   0  0  0  0  0  0  0  0  0  0  0  0
   -1.5260   -4.3197   32.4575 O   0  0  0  0  0  0  0  0  0  0  0  0
   -2.5356   -2.2495   32.2965 C   0  0  0  0  0  0  0  0  0  0  0  0
   -2.6670   -0.8554   32.0293 C   0  0  0  0  0  0  0  0  0  0  0  0
   -3.7556   -0.4162   32.7587 C   0  0  0  0  0  0  0  0  0  0  0  0
   -4.2694   -1.5135   33.3811 N   0  0  0  0  0  0  0  0  0  0  0  0
   -5.4050   -1.5767   34.2890 C   0  0  0  0  0  0  0  0  0  0  0  0
   -6.7224   -0.9885   33.7692 C   0  0  0  0  0  0  0  0  0  0  0  0
   -7.5641   -0.8475   35.0340 C   0  0  0  0  0  0  0  0  0  0  0  0
   -6.5755   -0.4019   36.1027 C   0  0  0  0  0  0  0  0  0  0  0  0
   -5.1827   -0.8169   35.6062 C   0  0  0  0  0  0  0  0  0  0  0  0
   -3.5201   -2.6074   33.1633 N   0  0  0  0  0  0  0  0  0  0  0  0
    1.5534   -1.9663   27.2457 H   0  0  0  0  0  0  0  0  0  0  0  0
    0.2805   -1.4223   28.3471 H   0  0  0  0  0  0  0  0  0  0  0  0
    1.9620   -1.5062   28.8964 H   0  0  0  0  0  0  0  0  0  0  0  0
    0.1354   -3.8733   28.1856 H   0  0  0  0  0  0  0  0  0  0  0  0
    3.1160   -3.8403   28.9876 H   0  0  0  0  0  0  0  0  0  0  0  0
    2.1238   -5.2858   28.9852 H   0  0  0  0  0  0  0  0  0  0  0  0
    2.7604   -3.8920   26.4294 H   0  0  0  0  0  0  0  0  0  0  0  0
    5.2552   -7.4134   24.8960 H   0  0  0  0  0  0  0  0  0  0  0  0
    5.7361   -6.1710   22.4740 H   0  0  0  0  0  0  0  0  0  0  0  0
    4.2870   -4.0593   22.5751 H   0  0  0  0  0  0  0  0  0  0  0  0
    1.4815   -2.9972   30.8183 H   0  0  0  0  0  0  0  0  0  0  0  0
    0.6139   -4.5052   30.6053 H   0  0  0  0  0  0  0  0  0  0  0  0
   -0.8728   -1.9392   30.4721 H   0  0  0  0  0  0  0  0  0  0  0  0
   -2.0282   -0.2386   31.4145 H   0  0  0  0  0  0  0  0  0  0  0  0
   -4.1963    0.5580   32.8876 H   0  0  0  0  0  0  0  0  0  0  0  0
   -5.5648   -2.6398   34.5085 H   0  0  0  0  0  0  0  0  0  0  0  0
   -6.5681   -0.0033   33.3131 H   0  0  0  0  0  0  0  0  0  0  0  0
   -7.1966   -1.6268   33.0189 H   0  0  0  0  0  0  0  0  0  0  0  0
   -8.0124   -1.8097   35.2987 H   0  0  0  0  0  0  0  0  0  0  0  0
   -8.3729   -0.1218   34.9283 H   0  0  0  0  0  0  0  0  0  0  0  0
   -6.8128   -0.8329   37.0801 H   0  0  0  0  0  0  0  0  0  0  0  0
   -6.6092    0.6879   36.2181 H   0  0  0  0  0  0  0  0  0  0  0  0
   -4.6608   -1.4397   36.3405 H   0  0  0  0  0  0  0  0  0  0  0  0
   -4.5683    0.0801   35.4622 H   0  0  0  0  0  0  0  0  0  0  0  0
  1  2  1  0
  2  3  1  0
  3  4  1  0
  4  5  1  0
  5  6  2  0
  5  7  1  0
  7  8  1  0
  8  9  2  0
  9 10  1  0
 10 11  1  0
  2 12  1  0
 12 13  1  0
 13 14  1  0
 14 15  2  0
 14 16  1  0
 16 17  1  0
 17 18  2  0
 18 19  1  0
 19 20  1  0
 20 21  1  0
 21 22  1  0
 22 23  1  0
 23 24  1  0
 19 25  1  0
 11  7  2  0
 25 16  2  0
 24 20  1  0
  1 26  1  0
  1 27  1  0
  1 28  1  0
  2 29  1  0
  3 30  1  0
  3 31  1  0
  4 32  1  0
  8 33  1  0
  9 34  1  0
 10 35  1  0
 12 36  1  0
 12 37  1  0
 13 38  1  0
 17 39  1  0
 18 40  1  0
 20 41  1  0
 21 42  1  0
 21 43  1  0
 22 44  1  0
 22 45  1  0
 23 46  1  0
 23 47  1  0
 24 48  1  0
 24 49  1  0
M  END
>  <Energy>  (382) 
88.650837824497088

>  <compound_id>  (382) 
18703

>  <target_id>  (382) 
1

>  <reference_id>  (382) 
122

>  <inspiration_ids>  (382) 
[122, 7]

>  <energy_score>  (382) 
-1.8709824876636958

>  <distance_score>  (382) 
10.864748933006563

>  <path>  (382) 
/opt/xchem-fragalysis-2/maxwin/BulkDock/SCRATCH/511023/C18703-P122/C18703-P122.minimised.mol

>  <scratch_subdir>  (382) 
/opt/xchem-fragalysis-2/maxwin/BulkDock/SCRATCH/511023/C18703-P122

>  <fragmenstein_runtime>  (382) 
17.49632477760315

>  <fragmenstein_outcome>  (382) 
too moved

>  <fragmenstein_mode>  (382) 
expansion

>  <fragmenstein_error>  (382) 


$$$$
C18703-P7
     RDKit          3D

 49 51  0  0  0  0  0  0  0  0999 V2000
   -1.6615   -0.0233   29.3193 C   0  0  0  0  0  0  0  0  0  0  0  0
   -0.8784   -0.4543   30.5522 C   0  0  0  0  0  0  0  0  0  0  0  0
    0.3477   -1.3465   30.1758 C   0  0  0  0  0  0  0  0  0  0  0  0
    1.1638   -1.0845   28.9906 N   0  0  0  0  0  0  0  0  0  0  0  0
    2.2725   -0.1719   28.7814 C   0  0  0  0  0  0  0  0  0  0  0  0
    2.7479    0.6555   29.5035 O   0  0  0  0  0  0  0  0  0  0  0  0
    2.9551   -0.4339   27.4428 C   0  0  0  0  0  0  0  0  0  0  0  0
    3.1654   -1.7140   26.8476 C   0  0  0  0  0  0  0  0  0  0  0  0
    3.8227   -1.4997   25.6653 C   0  0  0  0  0  0  0  0  0  0  0  0
    3.9801   -0.1551   25.5760 N   0  0  0  0  0  0  0  0  0  0  0  0
    3.5406    0.5133   26.6685 N   0  0  0  0  0  0  0  0  0  0  0  0
   -1.7907   -1.2618   31.5470 C   0  0  0  0  0  0  0  0  0  0  0  0
   -2.8375   -0.5748   32.3083 N   0  0  0  0  0  0  0  0  0  0  0  0
   -2.7713    0.5415   33.1940 C   0  0  0  0  0  0  0  0  0  0  0  0
   -1.8567    1.2549   33.4821 O   0  0  0  0  0  0  0  0  0  0  0  0
   -4.0902    0.8241   33.8987 C   0  0  0  0  0  0  0  0  0  0  0  0
   -4.3158    2.0254   34.6346 C   0  0  0  0  0  0  0  0  0  0  0  0
   -5.5883    1.9500   35.1209 C   0  0  0  0  0  0  0  0  0  0  0  0
   -6.0680    0.7231   34.7548 N   0  0  0  0  0  0  0  0  0  0  0  0
   -7.3940    0.2703   35.1538 C   0  0  0  0  0  0  0  0  0  0  0  0
   -7.6708    0.4410   36.6740 C   0  0  0  0  0  0  0  0  0  0  0  0
   -8.4553   -0.7851   37.1347 C   0  0  0  0  0  0  0  0  0  0  0  0
   -8.9446   -1.4045   35.8455 C   0  0  0  0  0  0  0  0  0  0  0  0
   -7.7764   -1.1762   34.8832 C   0  0  0  0  0  0  0  0  0  0  0  0
   -5.1990    0.0315   33.9402 N   0  0  0  0  0  0  0  0  0  0  0  0
   -1.0390    0.5765   28.6474 H   0  0  0  0  0  0  0  0  0  0  0  0
   -2.5156    0.5937   29.6100 H   0  0  0  0  0  0  0  0  0  0  0  0
   -2.0303   -0.8873   28.7572 H   0  0  0  0  0  0  0  0  0  0  0  0
   -0.5076    0.4485   31.0527 H   0  0  0  0  0  0  0  0  0  0  0  0
    1.0376   -1.3453   31.0285 H   0  0  0  0  0  0  0  0  0  0  0  0
    0.0054   -2.3807   30.0474 H   0  0  0  0  0  0  0  0  0  0  0  0
    0.9836   -1.5900   28.1289 H   0  0  0  0  0  0  0  0  0  0  0  0
    2.8170   -2.6617   27.2250 H   0  0  0  0  0  0  0  0  0  0  0  0
    4.0788   -2.1542   24.8442 H   0  0  0  0  0  0  0  0  0  0  0  0
    4.2931    0.3599   24.7520 H   0  0  0  0  0  0  0  0  0  0  0  0
   -1.1452   -1.7129   32.3102 H   0  0  0  0  0  0  0  0  0  0  0  0
   -2.2842   -2.0822   31.0130 H   0  0  0  0  0  0  0  0  0  0  0  0
   -3.7631   -0.9951   32.3748 H   0  0  0  0  0  0  0  0  0  0  0  0
   -3.6176    2.8417   34.7670 H   0  0  0  0  0  0  0  0  0  0  0  0
   -6.1745    2.6468   35.7044 H   0  0  0  0  0  0  0  0  0  0  0  0
   -8.0888    0.9199   34.6026 H   0  0  0  0  0  0  0  0  0  0  0  0
   -6.7526    0.5328   37.2657 H   0  0  0  0  0  0  0  0  0  0  0  0
   -8.2558    1.3535   36.8409 H   0  0  0  0  0  0  0  0  0  0  0  0
   -9.2732   -0.5245   37.8127 H   0  0  0  0  0  0  0  0  0  0  0  0
   -7.7852   -1.4713   37.6639 H   0  0  0  0  0  0  0  0  0  0  0  0
   -9.8446   -0.8692   35.5383 H   0  0  0  0  0  0  0  0  0  0  0  0
   -9.2222   -2.4481   35.9420 H   0  0  0  0  0  0  0  0  0  0  0  0
   -8.0519   -1.3345   33.8391 H   0  0  0  0  0  0  0  0  0  0  0  0
   -6.9448   -1.8467   35.1146 H   0  0  0  0  0  0  0  0  0  0  0  0
  1  2  1  0
  2  3  1  0
  3  4  1  0
  4  5  1  0
  5  6  2  0
  5  7  1  0
  7  8  1  0
  8  9  2  0
  9 10  1  0
 10 11  1  0
  2 12  1  0
 12 13  1  0
 13 14  1  0
 14 15  2  0
 14 16  1  0
 16 17  1  0
 17 18  2  0
 18 19  1  0
 19 20  1  0
 20 21  1  0
 21 22  1  0
 22 23  1  0
 23 24  1  0
 19 25  1  0
 11  7  2  0
 25 16  2  0
 24 20  1  0
  1 26  1  0
  1 27  1  0
  1 28  1  0
  2 29  1  0
  3 30  1  0
  3 31  1  0
  4 32  1  0
  8 33  1  0
  9 34  1  0
 10 35  1  0
 12 36  1  0
 12 37  1  0
 13 38  1  0
 17 39  1  0
 18 40  1  0
 20 41  1  0
 21 42  1  0
 21 43  1  0
 22 44  1  0
 22 45  1  0
 23 46  1  0
 23 47  1  0
 24 48  1  0
 24 49  1  0
M  END
>  <Energy>  (383) 
89.605184912999533

>  <compound_id>  (383) 
18703

>  <target_id>  (383) 
1

>  <reference_id>  (383) 
7

>  <inspiration_ids>  (383) 
[122, 7]

>  <energy_score>  (383) 
-0.9166353991605547

>  <distance_score>  (383) 
10.843437724057992

>  <path>  (383) 
/opt/xchem-fragalysis-2/maxwin/BulkDock/SCRATCH/511023/C18703-P7/C18703-P7.minimised.mol

>  <scratch_subdir>  (383) 
/opt/xchem-fragalysis-2/maxwin/BulkDock/SCRATCH/511023/C18703-P7

>  <fragmenstein_runtime>  (383) 
29.957735061645508

>  <fragmenstein_outcome>  (383) 
too moved

>  <fragmenstein_mode>  (383) 
expansion

>  <fragmenstein_error>  (383) 


$$$$
C18704-P122
     RDKit          3D

 47 49  0  0  0  0  0  0  0  0999 V2000
   -1.5773   -0.7148   33.9334 C   0  0  0  0  0  0  0  0  0  0  0  0
   -2.3687   -1.4589   32.9538 N   0  0  0  0  0  0  0  0  0  0  0  0
   -1.5213   -1.7811   31.7393 C   0  0  0  0  0  0  0  0  0  0  0  0
   -0.8055   -0.6363   30.9404 C   0  0  0  0  0  0  0  0  0  0  0  0
    0.2712   -1.0224   30.0065 N   0  0  0  0  0  0  0  0  0  0  0  0
    1.6959   -0.7703   30.0456 C   0  0  0  0  0  0  0  0  0  0  0  0
    2.3735   -0.2527   30.8864 O   0  0  0  0  0  0  0  0  0  0  0  0
    2.3972   -1.1489   28.7500 C   0  0  0  0  0  0  0  0  0  0  0  0
    3.7854   -0.9441   28.4269 C   0  0  0  0  0  0  0  0  0  0  0  0
    3.9588   -1.3828   27.1356 C   0  0  0  0  0  0  0  0  0  0  0  0
    2.7317   -1.8194   26.7381 N   0  0  0  0  0  0  0  0  0  0  0  0
    1.7697   -1.6994   27.6919 N   0  0  0  0  0  0  0  0  0  0  0  0
   -3.6658   -0.8072   32.6227 C   0  0  0  0  0  0  0  0  0  0  0  0
   -4.5590   -0.3372   33.7979 C   0  0  0  0  0  0  0  0  0  0  0  0
   -4.4007    0.8741   34.5254 C   0  0  0  0  0  0  0  0  0  0  0  0
   -5.4772    0.9571   35.3702 C   0  0  0  0  0  0  0  0  0  0  0  0
   -6.2596   -0.1319   35.1076 N   0  0  0  0  0  0  0  0  0  0  0  0
   -7.5163   -0.4124   35.7915 C   0  0  0  0  0  0  0  0  0  0  0  0
   -8.3899   -1.4884   35.1774 C   0  0  0  0  0  0  0  0  0  0  0  0
   -9.7661   -1.2914   35.8098 C   0  0  0  0  0  0  0  0  0  0  0  0
   -9.8723    0.1957   36.1075 C   0  0  0  0  0  0  0  0  0  0  0  0
   -8.4870    0.7795   35.8348 C   0  0  0  0  0  0  0  0  0  0  0  0
   -5.7005   -0.9601   34.1759 N   0  0  0  0  0  0  0  0  0  0  0  0
   -1.4161    0.3269   33.6373 H   0  0  0  0  0  0  0  0  0  0  0  0
   -0.5986   -1.1854   34.0826 H   0  0  0  0  0  0  0  0  0  0  0  0
   -2.0617   -0.7292   34.9151 H   0  0  0  0  0  0  0  0  0  0  0  0
   -0.7460   -2.4815   32.0779 H   0  0  0  0  0  0  0  0  0  0  0  0
   -2.1337   -2.3628   31.0383 H   0  0  0  0  0  0  0  0  0  0  0  0
   -1.5472   -0.0830   30.3546 H   0  0  0  0  0  0  0  0  0  0  0  0
   -0.3454    0.0669   31.6410 H   0  0  0  0  0  0  0  0  0  0  0  0
    0.0271   -1.4089   29.0931 H   0  0  0  0  0  0  0  0  0  0  0  0
    4.5335   -0.5106   29.0762 H   0  0  0  0  0  0  0  0  0  0  0  0
    4.8113   -1.4099   26.4727 H   0  0  0  0  0  0  0  0  0  0  0  0
    2.4589   -2.1876   25.8255 H   0  0  0  0  0  0  0  0  0  0  0  0
   -3.4825    0.0674   31.9867 H   0  0  0  0  0  0  0  0  0  0  0  0
   -4.2519   -1.5315   32.0462 H   0  0  0  0  0  0  0  0  0  0  0  0
   -3.5986    1.5938   34.4381 H   0  0  0  0  0  0  0  0  0  0  0  0
   -5.7530    1.6982   36.1077 H   0  0  0  0  0  0  0  0  0  0  0  0
   -7.2436   -0.6981   36.8160 H   0  0  0  0  0  0  0  0  0  0  0  0
   -8.0050   -2.4807   35.3542 H   0  0  0  0  0  0  0  0  0  0  0  0
   -8.4104   -1.3959   34.0940 H   0  0  0  0  0  0  0  0  0  0  0  0
  -10.5695   -1.6472   35.1609 H   0  0  0  0  0  0  0  0  0  0  0  0
   -9.8512   -1.8357   36.7545 H   0  0  0  0  0  0  0  0  0  0  0  0
  -10.6277    0.6795   35.4795 H   0  0  0  0  0  0  0  0  0  0  0  0
  -10.1643    0.3561   37.1513 H   0  0  0  0  0  0  0  0  0  0  0  0
   -8.4938    1.3089   34.8734 H   0  0  0  0  0  0  0  0  0  0  0  0
   -8.2064    1.5101   36.6010 H   0  0  0  0  0  0  0  0  0  0  0  0
  1  2  1  0
  2  3  1  0
  3  4  1  0
  4  5  1  0
  5  6  1  0
  6  7  2  0
  6  8  1  0
  8  9  1  0
  9 10  2  0
 10 11  1  0
 11 12  1  0
  2 13  1  0
 13 14  1  0
 14 15  1  0
 15 16  2  0
 16 17  1  0
 17 18  1  0
 18 19  1  0
 19 20  1  0
 20 21  1  0
 21 22  1  0
 17 23  1  0
 12  8  2  0
 23 14  2  0
 22 18  1  0
  1 24  1  0
  1 25  1  0
  1 26  1  0
  3 27  1  0
  3 28  1  0
  4 29  1  0
  4 30  1  0
  5 31  1  0
  9 32  1  0
 10 33  1  0
 11 34  1  0
 13 35  1  0
 13 36  1  0
 15 37  1  0
 16 38  1  0
 18 39  1  0
 19 40  1  0
 19 41  1  0
 20 42  1  0
 20 43  1  0
 21 44  1  0
 21 45  1  0
 22 46  1  0
 22 47  1  0
M  END
>  <Energy>  (384) 
95.395499347919753

>  <compound_id>  (384) 
18704

>  <target_id>  (384) 
1

>  <reference_id>  (384) 
122

>  <inspiration_ids>  (384) 
[122, 7]

>  <energy_score>  (384) 
-14.033416579221239

>  <distance_score>  (384) 
11.333557306377825

>  <path>  (384) 
/opt/xchem-fragalysis-2/maxwin/BulkDock/SCRATCH/511023/C18704-P122/C18704-P122.minimised.mol

>  <scratch_subdir>  (384) 
/opt/xchem-fragalysis-2/maxwin/BulkDock/SCRATCH/511023/C18704-P122

>  <fragmenstein_runtime>  (384) 
14.027219772338867

>  <fragmenstein_outcome>  (384) 
too moved

>  <fragmenstein_mode>  (384) 
expansion

>  <fragmenstein_error>  (384) 


$$$$
C18704-P7
     RDKit          3D

 47 49  0  0  0  0  0  0  0  0999 V2000
   -1.9997   -2.2939   30.5243 C   0  0  0  0  0  0  0  0  0  0  0  0
   -1.2680   -1.1962   31.1664 N   0  0  0  0  0  0  0  0  0  0  0  0
    0.1668   -1.2405   30.6923 C   0  0  0  0  0  0  0  0  0  0  0  0
    0.3458   -0.5748   29.2862 C   0  0  0  0  0  0  0  0  0  0  0  0
    1.5187   -0.8539   28.4531 N   0  0  0  0  0  0  0  0  0  0  0  0
    2.8888   -1.1004   28.8048 C   0  0  0  0  0  0  0  0  0  0  0  0
    3.4110   -1.2200   29.8754 O   0  0  0  0  0  0  0  0  0  0  0  0
    3.7408   -1.1609   27.5466 C   0  0  0  0  0  0  0  0  0  0  0  0
    5.1234   -1.5037   27.4028 C   0  0  0  0  0  0  0  0  0  0  0  0
    5.4156   -1.3891   26.0605 C   0  0  0  0  0  0  0  0  0  0  0  0
    4.2558   -0.9859   25.4654 N   0  0  0  0  0  0  0  0  0  0  0  0
    3.2367   -0.8335   26.3392 N   0  0  0  0  0  0  0  0  0  0  0  0
   -1.4287   -1.3232   32.6452 C   0  0  0  0  0  0  0  0  0  0  0  0
   -2.8114   -0.8213   33.1424 C   0  0  0  0  0  0  0  0  0  0  0  0
   -3.2175    0.5375   33.1876 C   0  0  0  0  0  0  0  0  0  0  0  0
   -4.4663    0.5521   33.7553 C   0  0  0  0  0  0  0  0  0  0  0  0
   -4.7519   -0.7439   34.0704 N   0  0  0  0  0  0  0  0  0  0  0  0
   -5.8817   -1.1891   34.8684 C   0  0  0  0  0  0  0  0  0  0  0  0
   -5.8506   -0.6639   36.3137 C   0  0  0  0  0  0  0  0  0  0  0  0
   -7.3022   -0.7034   36.8120 C   0  0  0  0  0  0  0  0  0  0  0  0
   -8.1597   -1.0459   35.6005 C   0  0  0  0  0  0  0  0  0  0  0  0
   -7.2725   -0.7551   34.3932 C   0  0  0  0  0  0  0  0  0  0  0  0
   -3.7620   -1.6156   33.6943 N   0  0  0  0  0  0  0  0  0  0  0  0
   -1.5430   -3.2679   30.7365 H   0  0  0  0  0  0  0  0  0  0  0  0
   -2.0436   -2.1660   29.4389 H   0  0  0  0  0  0  0  0  0  0  0  0
   -3.0327   -2.3360   30.8794 H   0  0  0  0  0  0  0  0  0  0  0  0
    0.7988   -0.6816   31.3933 H   0  0  0  0  0  0  0  0  0  0  0  0
    0.5422   -2.2711   30.6823 H   0  0  0  0  0  0  0  0  0  0  0  0
   -0.5027   -0.8303   28.6432 H   0  0  0  0  0  0  0  0  0  0  0  0
    0.3168    0.5140   29.4129 H   0  0  0  0  0  0  0  0  0  0  0  0
    1.4242   -0.8954   27.4355 H   0  0  0  0  0  0  0  0  0  0  0  0
    5.7966   -1.7965   28.1960 H   0  0  0  0  0  0  0  0  0  0  0  0
    6.3180   -1.5454   25.4896 H   0  0  0  0  0  0  0  0  0  0  0  0
    4.0767   -0.7682   24.4814 H   0  0  0  0  0  0  0  0  0  0  0  0
   -1.2556   -2.3524   32.9835 H   0  0  0  0  0  0  0  0  0  0  0  0
   -0.6826   -0.6909   33.1438 H   0  0  0  0  0  0  0  0  0  0  0  0
   -2.6309    1.3842   32.8604 H   0  0  0  0  0  0  0  0  0  0  0  0
   -5.1319    1.3665   34.0049 H   0  0  0  0  0  0  0  0  0  0  0  0
   -5.8353   -2.2814   34.8600 H   0  0  0  0  0  0  0  0  0  0  0  0
   -5.1815   -1.2543   36.9478 H   0  0  0  0  0  0  0  0  0  0  0  0
   -5.4878    0.3703   36.3599 H   0  0  0  0  0  0  0  0  0  0  0  0
   -7.4380   -1.4332   37.6158 H   0  0  0  0  0  0  0  0  0  0  0  0
   -7.5802    0.2764   37.2170 H   0  0  0  0  0  0  0  0  0  0  0  0
   -8.4279   -2.1057   35.6164 H   0  0  0  0  0  0  0  0  0  0  0  0
   -9.0863   -0.4674   35.5952 H   0  0  0  0  0  0  0  0  0  0  0  0
   -7.3036    0.3154   34.1587 H   0  0  0  0  0  0  0  0  0  0  0  0
   -7.5903   -1.2963   33.4992 H   0  0  0  0  0  0  0  0  0  0  0  0
  1  2  1  0
  2  3  1  0
  3  4  1  0
  4  5  1  0
  5  6  1  0
  6  7  2  0
  6  8  1  0
  8  9  1  0
  9 10  2  0
 10 11  1  0
 11 12  1  0
  2 13  1  0
 13 14  1  0
 14 15  1  0
 15 16  2  0
 16 17  1  0
 17 18  1  0
 18 19  1  0
 19 20  1  0
 20 21  1  0
 21 22  1  0
 17 23  1  0
 12  8  2  0
 23 14  2  0
 22 18  1  0
  1 24  1  0
  1 25  1  0
  1 26  1  0
  3 27  1  0
  3 28  1  0
  4 29  1  0
  4 30  1  0
  5 31  1  0
  9 32  1  0
 10 33  1  0
 11 34  1  0
 13 35  1  0
 13 36  1  0
 15 37  1  0
 16 38  1  0
 18 39  1  0
 19 40  1  0
 19 41  1  0
 20 42  1  0
 20 43  1  0
 21 44  1  0
 21 45  1  0
 22 46  1  0
 22 47  1  0
M  END
>  <Energy>  (385) 
88.406165777348221

>  <compound_id>  (385) 
18704

>  <target_id>  (385) 
1

>  <reference_id>  (385) 
7

>  <inspiration_ids>  (385) 
[122, 7]

>  <energy_score>  (385) 
-21.02275014979182

>  <distance_score>  (385) 
11.093507245001673

>  <path>  (385) 
/opt/xchem-fragalysis-2/maxwin/BulkDock/SCRATCH/511023/C18704-P7/C18704-P7.minimised.mol

>  <scratch_subdir>  (385) 
/opt/xchem-fragalysis-2/maxwin/BulkDock/SCRATCH/511023/C18704-P7

>  <fragmenstein_runtime>  (385) 
10.285117864608765

>  <fragmenstein_outcome>  (385) 
too moved

>  <fragmenstein_mode>  (385) 
expansion

>  <fragmenstein_error>  (385) 


$$$$
C18705-P122
     RDKit          3D

 49 51  0  0  0  0  0  0  0  0999 V2000
    0.5600    1.4705   31.8411 C   0  0  0  0  0  0  0  0  0  0  0  0
    0.7706    0.0153   31.4411 C   0  0  0  0  0  0  0  0  0  0  0  0
   -0.3713   -1.0597   31.7653 C   0  0  0  0  0  0  0  0  0  0  0  0
   -1.8657   -0.9769   32.1650 N   0  0  0  0  0  0  0  0  0  0  0  0
   -1.9427   -0.2232   30.8827 C   0  0  0  0  0  0  0  0  0  0  0  0
   -2.5231   -0.2364   33.2217 C   0  0  0  0  0  0  0  0  0  0  0  0
   -2.0847    0.5701   33.9972 O   0  0  0  0  0  0  0  0  0  0  0  0
   -3.9450   -0.6870   33.3486 C   0  0  0  0  0  0  0  0  0  0  0  0
   -4.6037   -1.6266   32.5592 C   0  0  0  0  0  0  0  0  0  0  0  0
   -5.9352   -1.6573   32.9716 C   0  0  0  0  0  0  0  0  0  0  0  0
   -6.1342   -0.8917   34.0297 N   0  0  0  0  0  0  0  0  0  0  0  0
   -4.9210   -0.3481   34.2934 N   0  0  0  0  0  0  0  0  0  0  0  0
   -4.8281    0.4138   35.5383 C   0  0  0  0  0  0  0  0  0  0  0  0
   -4.5817   -0.5081   36.7503 C   0  0  0  0  0  0  0  0  0  0  0  0
   -5.7662   -0.3143   37.7092 C   0  0  0  0  0  0  0  0  0  0  0  0
   -6.8863    0.2509   36.8581 C   0  0  0  0  0  0  0  0  0  0  0  0
   -6.1344    1.1683   35.8982 C   0  0  0  0  0  0  0  0  0  0  0  0
    1.3886   -0.1121   30.0932 N   0  0  0  0  0  0  0  0  0  0  0  0
    2.1231   -1.1977   29.4881 C   0  0  0  0  0  0  0  0  0  0  0  0
    2.3530   -2.3022   29.8885 O   0  0  0  0  0  0  0  0  0  0  0  0
    2.7738   -0.8079   28.1704 C   0  0  0  0  0  0  0  0  0  0  0  0
    3.6150   -1.6543   27.3709 C   0  0  0  0  0  0  0  0  0  0  0  0
    3.9747   -0.9261   26.2663 C   0  0  0  0  0  0  0  0  0  0  0  0
    3.3682    0.2796   26.4245 N   0  0  0  0  0  0  0  0  0  0  0  0
    2.6711    0.4063   27.5840 N   0  0  0  0  0  0  0  0  0  0  0  0
    1.5310    1.9708   31.9409 H   0  0  0  0  0  0  0  0  0  0  0  0
    0.0107    2.0420   31.0876 H   0  0  0  0  0  0  0  0  0  0  0  0
    0.0512    1.5521   32.8044 H   0  0  0  0  0  0  0  0  0  0  0  0
    1.6013   -0.3242   32.0791 H   0  0  0  0  0  0  0  0  0  0  0  0
    0.0060   -1.4973   32.7050 H   0  0  0  0  0  0  0  0  0  0  0  0
   -0.2773   -1.9099   31.0673 H   0  0  0  0  0  0  0  0  0  0  0  0
   -3.0057   -0.0136   30.7437 H   0  0  0  0  0  0  0  0  0  0  0  0
   -1.5602    0.7944   30.9250 H   0  0  0  0  0  0  0  0  0  0  0  0
   -1.6623   -0.7879   29.9816 H   0  0  0  0  0  0  0  0  0  0  0  0
   -4.1747   -2.1905   31.7413 H   0  0  0  0  0  0  0  0  0  0  0  0
   -6.7616   -2.2047   32.5467 H   0  0  0  0  0  0  0  0  0  0  0  0
   -4.0169    1.1354   35.4081 H   0  0  0  0  0  0  0  0  0  0  0  0
   -4.4991   -1.5598   36.4541 H   0  0  0  0  0  0  0  0  0  0  0  0
   -3.6454   -0.2449   37.2550 H   0  0  0  0  0  0  0  0  0  0  0  0
   -5.4878    0.4130   38.4820 H   0  0  0  0  0  0  0  0  0  0  0  0
   -6.0508   -1.2363   38.2203 H   0  0  0  0  0  0  0  0  0  0  0  0
   -7.4069   -0.5490   36.3224 H   0  0  0  0  0  0  0  0  0  0  0  0
   -7.6238    0.7958   37.4544 H   0  0  0  0  0  0  0  0  0  0  0  0
   -5.8726    2.0951   36.4252 H   0  0  0  0  0  0  0  0  0  0  0  0
   -6.7402    1.4478   35.0322 H   0  0  0  0  0  0  0  0  0  0  0  0
    1.4678    0.7138   29.4989 H   0  0  0  0  0  0  0  0  0  0  0  0
    3.8579   -2.6816   27.5884 H   0  0  0  0  0  0  0  0  0  0  0  0
    4.5181   -1.1589   25.3625 H   0  0  0  0  0  0  0  0  0  0  0  0
    3.3368    1.0373   25.7491 H   0  0  0  0  0  0  0  0  0  0  0  0
  1  2  1  0
  2  3  1  0
  3  4  1  0
  4  5  1  0
  4  6  1  0
  6  7  2  0
  6  8  1  0
  8  9  2  0
  9 10  1  0
 10 11  2  0
 11 12  1  0
 12 13  1  0
 13 14  1  0
 14 15  1  0
 15 16  1  0
 16 17  1  0
  2 18  1  0
 18 19  1  0
 19 20  2  0
 19 21  1  0
 21 22  1  0
 22 23  2  0
 23 24  1  0
 24 25  1  0
 12  8  1  0
 17 13  1  0
 25 21  2  0
  1 26  1  0
  1 27  1  0
  1 28  1  0
  2 29  1  0
  3 30  1  0
  3 31  1  0
  5 32  1  0
  5 33  1  0
  5 34  1  0
  9 35  1  0
 10 36  1  0
 13 37  1  0
 14 38  1  0
 14 39  1  0
 15 40  1  0
 15 41  1  0
 16 42  1  0
 16 43  1  0
 17 44  1  0
 17 45  1  0
 18 46  1  0
 22 47  1  0
 23 48  1  0
 24 49  1  0
M  END
>  <Energy>  (386) 
120.28140063692469

>  <compound_id>  (386) 
18705

>  <target_id>  (386) 
1

>  <reference_id>  (386) 
122

>  <inspiration_ids>  (386) 
[122, 7]

>  <energy_score>  (386) 
40.21551293262968

>  <distance_score>  (386) 
11.72433281530897

>  <path>  (386) 
/opt/xchem-fragalysis-2/maxwin/BulkDock/SCRATCH/511023/C18705-P122/C18705-P122.minimised.mol

>  <scratch_subdir>  (386) 
/opt/xchem-fragalysis-2/maxwin/BulkDock/SCRATCH/511023/C18705-P122

>  <fragmenstein_runtime>  (386) 
21.558061838150024

>  <fragmenstein_outcome>  (386) 
too moved

>  <fragmenstein_mode>  (386) 
expansion

>  <fragmenstein_error>  (386) 


$$$$
C18705-P7
     RDKit          3D

 49 51  0  0  0  0  0  0  0  0999 V2000
    1.2180   -2.4878   30.6842 C   0  0  0  0  0  0  0  0  0  0  0  0
    0.7423   -1.3377   29.7913 C   0  0  0  0  0  0  0  0  0  0  0  0
    0.1365   -0.1640   30.6787 C   0  0  0  0  0  0  0  0  0  0  0  0
   -1.3007   -0.4755   31.2419 N   0  0  0  0  0  0  0  0  0  0  0  0
   -1.7103    0.2183   29.9791 C   0  0  0  0  0  0  0  0  0  0  0  0
   -2.0179    0.0857   32.3749 C   0  0  0  0  0  0  0  0  0  0  0  0
   -1.7277    0.9907   33.1101 O   0  0  0  0  0  0  0  0  0  0  0  0
   -3.2449   -0.7077   32.6496 C   0  0  0  0  0  0  0  0  0  0  0  0
   -3.5721   -1.9306   32.0808 C   0  0  0  0  0  0  0  0  0  0  0  0
   -4.7961   -2.3144   32.6223 C   0  0  0  0  0  0  0  0  0  0  0  0
   -5.2354   -1.4552   33.5232 N   0  0  0  0  0  0  0  0  0  0  0  0
   -4.3084   -0.4662   33.5303 N   0  0  0  0  0  0  0  0  0  0  0  0
   -4.5922    0.6719   34.4007 C   0  0  0  0  0  0  0  0  0  0  0  0
   -4.2261    0.4137   35.8636 C   0  0  0  0  0  0  0  0  0  0  0  0
   -5.4559   -0.2623   36.4788 C   0  0  0  0  0  0  0  0  0  0  0  0
   -6.6621    0.2294   35.6860 C   0  0  0  0  0  0  0  0  0  0  0  0
   -6.0952    1.0237   34.5043 C   0  0  0  0  0  0  0  0  0  0  0  0
    1.7926   -0.9790   28.8175 N   0  0  0  0  0  0  0  0  0  0  0  0
    3.1777   -0.6371   29.0054 C   0  0  0  0  0  0  0  0  0  0  0  0
    3.8134   -0.4787   30.0068 O   0  0  0  0  0  0  0  0  0  0  0  0
    3.9059   -0.5799   27.6777 C   0  0  0  0  0  0  0  0  0  0  0  0
    5.3147   -0.4501   27.4522 C   0  0  0  0  0  0  0  0  0  0  0  0
    5.4910   -0.4735   26.0887 C   0  0  0  0  0  0  0  0  0  0  0  0
    4.2379   -0.5852   25.5554 N   0  0  0  0  0  0  0  0  0  0  0  0
    3.2684   -0.6875   26.4947 N   0  0  0  0  0  0  0  0  0  0  0  0
    1.5781   -3.3265   30.0779 H   0  0  0  0  0  0  0  0  0  0  0  0
    0.4033   -2.8552   31.3167 H   0  0  0  0  0  0  0  0  0  0  0  0
    2.0402   -2.1747   31.3360 H   0  0  0  0  0  0  0  0  0  0  0  0
   -0.0533   -1.7550   29.1642 H   0  0  0  0  0  0  0  0  0  0  0  0
    0.3244    0.8430   30.2697 H   0  0  0  0  0  0  0  0  0  0  0  0
    0.7371   -0.1303   31.6010 H   0  0  0  0  0  0  0  0  0  0  0  0
   -1.4314   -0.2706   29.0396 H   0  0  0  0  0  0  0  0  0  0  0  0
   -1.5186    1.3000   29.9890 H   0  0  0  0  0  0  0  0  0  0  0  0
   -2.8039    0.1818   29.9743 H   0  0  0  0  0  0  0  0  0  0  0  0
   -2.9841   -2.4781   31.3568 H   0  0  0  0  0  0  0  0  0  0  0  0
   -5.3498   -3.2140   32.4271 H   0  0  0  0  0  0  0  0  0  0  0  0
   -4.0381    1.5221   33.9919 H   0  0  0  0  0  0  0  0  0  0  0  0
   -4.0557    1.3716   36.3706 H   0  0  0  0  0  0  0  0  0  0  0  0
   -3.3246   -0.1954   35.9849 H   0  0  0  0  0  0  0  0  0  0  0  0
   -5.3572   -1.3454   36.3790 H   0  0  0  0  0  0  0  0  0  0  0  0
   -5.5470   -0.0400   37.5465 H   0  0  0  0  0  0  0  0  0  0  0  0
   -7.3108    0.8641   36.2990 H   0  0  0  0  0  0  0  0  0  0  0  0
   -7.2675   -0.6166   35.3428 H   0  0  0  0  0  0  0  0  0  0  0  0
   -6.6513    0.8315   33.5813 H   0  0  0  0  0  0  0  0  0  0  0  0
   -6.1904    2.0936   34.7287 H   0  0  0  0  0  0  0  0  0  0  0  0
    1.6154   -1.1123   27.8179 H   0  0  0  0  0  0  0  0  0  0  0  0
    6.0782   -0.3516   28.2120 H   0  0  0  0  0  0  0  0  0  0  0  0
    6.3648   -0.3929   25.4591 H   0  0  0  0  0  0  0  0  0  0  0  0
    3.9625   -0.5680   24.5692 H   0  0  0  0  0  0  0  0  0  0  0  0
  1  2  1  0
  2  3  1  0
  3  4  1  0
  4  5  1  0
  4  6  1  0
  6  7  2  0
  6  8  1  0
  8  9  2  0
  9 10  1  0
 10 11  2  0
 11 12  1  0
 12 13  1  0
 13 14  1  0
 14 15  1  0
 15 16  1  0
 16 17  1  0
  2 18  1  0
 18 19  1  0
 19 20  2  0
 19 21  1  0
 21 22  1  0
 22 23  2  0
 23 24  1  0
 24 25  1  0
 12  8  1  0
 17 13  1  0
 25 21  2  0
  1 26  1  0
  1 27  1  0
  1 28  1  0
  2 29  1  0
  3 30  1  0
  3 31  1  0
  5 32  1  0
  5 33  1  0
  5 34  1  0
  9 35  1  0
 10 36  1  0
 13 37  1  0
 14 38  1  0
 14 39  1  0
 15 40  1  0
 15 41  1  0
 16 42  1  0
 16 43  1  0
 17 44  1  0
 17 45  1  0
 18 46  1  0
 22 47  1  0
 23 48  1  0
 24 49  1  0
M  END
>  <Energy>  (387) 
104.04266873015496

>  <compound_id>  (387) 
18705

>  <target_id>  (387) 
1

>  <reference_id>  (387) 
7

>  <inspiration_ids>  (387) 
[122, 7]

>  <energy_score>  (387) 
23.976781025860134

>  <distance_score>  (387) 
11.580431712239836

>  <path>  (387) 
/opt/xchem-fragalysis-2/maxwin/BulkDock/SCRATCH/511023/C18705-P7/C18705-P7.minimised.mol

>  <scratch_subdir>  (387) 
/opt/xchem-fragalysis-2/maxwin/BulkDock/SCRATCH/511023/C18705-P7

>  <fragmenstein_runtime>  (387) 
14.784013032913208

>  <fragmenstein_outcome>  (387) 
too moved

>  <fragmenstein_mode>  (387) 
expansion

>  <fragmenstein_error>  (387) 


$$$$
C13497-P122
     RDKit          3D

 35 37  0  0  0  0  0  0  0  0999 V2000
    1.2066   -2.9305   30.8443 O   0  0  0  0  0  0  0  0  0  0  0  0
    0.8157   -1.9632   30.2027 C   0  0  0  0  0  0  0  0  0  0  0  0
    1.4435   -1.5025   29.0366 O   0  0  0  0  0  0  0  0  0  0  0  0
    2.4616   -2.3997   28.4846 C   0  0  0  0  0  0  0  0  0  0  0  0
    3.4108   -1.7454   27.4739 C   0  0  0  0  0  0  0  0  0  0  0  0
    4.6049   -1.0593   27.6452 C   0  0  0  0  0  0  0  0  0  0  0  0
    5.1684   -0.9163   26.3601 C   0  0  0  0  0  0  0  0  0  0  0  0
    4.3973   -1.4499   25.4169 N   0  0  0  0  0  0  0  0  0  0  0  0
    3.3310   -1.9266   26.1037 N   0  0  0  0  0  0  0  0  0  0  0  0
   -0.3987   -1.2092   30.5413 C   0  0  0  0  0  0  0  0  0  0  0  0
   -1.0028   -0.2045   29.7993 C   0  0  0  0  0  0  0  0  0  0  0  0
   -2.1746    0.1414   30.4742 C   0  0  0  0  0  0  0  0  0  0  0  0
   -2.3770   -0.6026   31.5536 N   0  0  0  0  0  0  0  0  0  0  0  0
   -1.2429   -1.3424   31.6629 N   0  0  0  0  0  0  0  0  0  0  0  0
   -1.0136   -2.0026   32.9544 C   0  0  0  0  0  0  0  0  0  0  0  0
   -1.9067   -1.4777   34.1266 C   0  0  0  0  0  0  0  0  0  0  0  0
   -2.9838   -2.5379   34.3303 C   0  0  0  0  0  0  0  0  0  0  0  0
   -2.1780   -3.8092   34.1522 C   0  0  0  0  0  0  0  0  0  0  0  0
   -1.2771   -3.5181   32.9385 C   0  0  0  0  0  0  0  0  0  0  0  0
    3.0759   -2.7991   29.3006 H   0  0  0  0  0  0  0  0  0  0  0  0
    1.9371   -3.2316   28.0007 H   0  0  0  0  0  0  0  0  0  0  0  0
    5.0390   -0.7541   28.5869 H   0  0  0  0  0  0  0  0  0  0  0  0
    6.1069   -0.4559   26.0808 H   0  0  0  0  0  0  0  0  0  0  0  0
    2.5845   -2.3697   25.5675 H   0  0  0  0  0  0  0  0  0  0  0  0
   -0.6391    0.2050   28.8660 H   0  0  0  0  0  0  0  0  0  0  0  0
   -2.9061    0.8805   30.1890 H   0  0  0  0  0  0  0  0  0  0  0  0
    0.0363   -1.7953   33.1961 H   0  0  0  0  0  0  0  0  0  0  0  0
   -2.3266   -0.4785   33.9824 H   0  0  0  0  0  0  0  0  0  0  0  0
   -1.2880   -1.4267   35.0329 H   0  0  0  0  0  0  0  0  0  0  0  0
   -3.4494   -2.4728   35.3174 H   0  0  0  0  0  0  0  0  0  0  0  0
   -3.7625   -2.4560   33.5643 H   0  0  0  0  0  0  0  0  0  0  0  0
   -1.5479   -3.9749   35.0358 H   0  0  0  0  0  0  0  0  0  0  0  0
   -2.7933   -4.7011   34.0333 H   0  0  0  0  0  0  0  0  0  0  0  0
   -0.3428   -4.0848   33.0158 H   0  0  0  0  0  0  0  0  0  0  0  0
   -1.7554   -3.8188   32.0026 H   0  0  0  0  0  0  0  0  0  0  0  0
  1  2  2  0
  2  3  1  0
  3  4  1  0
  4  5  1  0
  5  6  2  0
  6  7  1  0
  7  8  2  0
  8  9  1  0
  2 10  1  0
 10 11  2  0
 11 12  1  0
 12 13  2  0
 13 14  1  0
 14 15  1  0
 15 16  1  0
 16 17  1  0
 17 18  1  0
 18 19  1  0
  9  5  1  0
 14 10  1  0
 19 15  1  0
  4 20  1  0
  4 21  1  0
  6 22  1  0
  7 23  1  0
  9 24  1  0
 11 25  1  0
 12 26  1  0
 15 27  1  0
 16 28  1  0
 16 29  1  0
 17 30  1  0
 17 31  1  0
 18 32  1  0
 18 33  1  0
 19 34  1  0
 19 35  1  0
M  END
>  <Energy>  (388) 
1.8334787810959576

>  <compound_id>  (388) 
13497

>  <target_id>  (388) 
1

>  <reference_id>  (388) 
122

>  <inspiration_ids>  (388) 
[122, 7]

>  <energy_score>  (388) 
-23.706064143407218

>  <distance_score>  (388) 
13.286538039276639

>  <path>  (388) 
/opt/xchem-fragalysis-2/maxwin/BulkDock/SCRATCH/511023/C13497-P122/C13497-P122.minimised.mol

>  <scratch_subdir>  (388) 
/opt/xchem-fragalysis-2/maxwin/BulkDock/SCRATCH/511023/C13497-P122

>  <fragmenstein_runtime>  (388) 
7.432223558425903

>  <fragmenstein_outcome>  (388) 
too moved

>  <fragmenstein_mode>  (388) 
expansion

>  <fragmenstein_error>  (388) 


$$$$
C13497-P7
     RDKit          3D

 35 37  0  0  0  0  0  0  0  0999 V2000
    0.1775   -3.5036   30.5117 O   0  0  0  0  0  0  0  0  0  0  0  0
    0.1355   -2.3896   30.0058 C   0  0  0  0  0  0  0  0  0  0  0  0
    1.0433   -1.9275   29.0409 O   0  0  0  0  0  0  0  0  0  0  0  0
    2.0001   -2.8976   28.5130 C   0  0  0  0  0  0  0  0  0  0  0  0
    3.1337   -2.2630   27.6909 C   0  0  0  0  0  0  0  0  0  0  0  0
    4.3897   -1.8012   28.0596 C   0  0  0  0  0  0  0  0  0  0  0  0
    5.0875   -1.5387   26.8615 C   0  0  0  0  0  0  0  0  0  0  0  0
    4.3439   -1.7924   25.7888 N   0  0  0  0  0  0  0  0  0  0  0  0
    3.1645   -2.2078   26.3088 N   0  0  0  0  0  0  0  0  0  0  0  0
   -0.8895   -1.3838   30.3055 C   0  0  0  0  0  0  0  0  0  0  0  0
   -1.1177   -0.2496   29.5416 C   0  0  0  0  0  0  0  0  0  0  0  0
   -2.1699    0.4270   30.1387 C   0  0  0  0  0  0  0  0  0  0  0  0
   -2.5636   -0.1391   31.2688 N   0  0  0  0  0  0  0  0  0  0  0  0
   -1.8890   -1.3202   31.2991 N   0  0  0  0  0  0  0  0  0  0  0  0
   -2.3959   -2.2911   32.2702 C   0  0  0  0  0  0  0  0  0  0  0  0
   -1.9928   -2.0221   33.7243 C   0  0  0  0  0  0  0  0  0  0  0  0
   -2.9670   -2.8606   34.5534 C   0  0  0  0  0  0  0  0  0  0  0  0
   -4.2937   -2.7808   33.8177 C   0  0  0  0  0  0  0  0  0  0  0  0
   -3.9469   -2.2943   32.4062 C   0  0  0  0  0  0  0  0  0  0  0  0
    1.4488   -3.6077   27.8880 H   0  0  0  0  0  0  0  0  0  0  0  0
    2.4515   -3.4418   29.3511 H   0  0  0  0  0  0  0  0  0  0  0  0
    4.7690   -1.7142   29.0680 H   0  0  0  0  0  0  0  0  0  0  0  0
    6.1015   -1.1834   26.7334 H   0  0  0  0  0  0  0  0  0  0  0  0
    2.4237   -2.4495   25.6530 H   0  0  0  0  0  0  0  0  0  0  0  0
   -0.5924    0.0275   28.6368 H   0  0  0  0  0  0  0  0  0  0  0  0
   -2.6522    1.3138   29.7708 H   0  0  0  0  0  0  0  0  0  0  0  0
   -2.0404   -3.2763   31.9541 H   0  0  0  0  0  0  0  0  0  0  0  0
   -2.1047   -0.9600   33.9764 H   0  0  0  0  0  0  0  0  0  0  0  0
   -0.9513   -2.2987   33.9168 H   0  0  0  0  0  0  0  0  0  0  0  0
   -2.6227   -3.9013   34.5825 H   0  0  0  0  0  0  0  0  0  0  0  0
   -3.0415   -2.5057   35.5856 H   0  0  0  0  0  0  0  0  0  0  0  0
   -4.9685   -2.0693   34.3069 H   0  0  0  0  0  0  0  0  0  0  0  0
   -4.7946   -3.7513   33.8123 H   0  0  0  0  0  0  0  0  0  0  0  0
   -4.4302   -2.8878   31.6269 H   0  0  0  0  0  0  0  0  0  0  0  0
   -4.3667   -1.2872   32.3216 H   0  0  0  0  0  0  0  0  0  0  0  0
  1  2  2  0
  2  3  1  0
  3  4  1  0
  4  5  1  0
  5  6  2  0
  6  7  1  0
  7  8  2  0
  8  9  1  0
  2 10  1  0
 10 11  2  0
 11 12  1  0
 12 13  2  0
 13 14  1  0
 14 15  1  0
 15 16  1  0
 16 17  1  0
 17 18  1  0
 18 19  1  0
  9  5  1  0
 14 10  1  0
 19 15  1  0
  4 20  1  0
  4 21  1  0
  6 22  1  0
  7 23  1  0
  9 24  1  0
 11 25  1  0
 12 26  1  0
 15 27  1  0
 16 28  1  0
 16 29  1  0
 17 30  1  0
 17 31  1  0
 18 32  1  0
 18 33  1  0
 19 34  1  0
 19 35  1  0
M  END
>  <Energy>  (389) 
4.7508713799726836

>  <compound_id>  (389) 
13497

>  <target_id>  (389) 
1

>  <reference_id>  (389) 
7

>  <inspiration_ids>  (389) 
[122, 7]

>  <energy_score>  (389) 
-20.788671544530388

>  <distance_score>  (389) 
13.24213988689717

>  <path>  (389) 
/opt/xchem-fragalysis-2/maxwin/BulkDock/SCRATCH/511023/C13497-P7/C13497-P7.minimised.mol

>  <scratch_subdir>  (389) 
/opt/xchem-fragalysis-2/maxwin/BulkDock/SCRATCH/511023/C13497-P7

>  <fragmenstein_runtime>  (389) 
5.528272867202759

>  <fragmenstein_outcome>  (389) 
too moved

>  <fragmenstein_mode>  (389) 
expansion

>  <fragmenstein_error>  (389) 


$$$$
C18706-P122
     RDKit          3D

 33 35  0  0  0  0  0  0  0  0999 V2000
    0.2583   -2.9102   30.1132 O   0  0  0  0  0  0  0  0  0  0  0  0
    0.2246   -1.8260   29.6009 C   0  0  0  0  0  0  0  0  0  0  0  0
   -0.6635   -0.7040   29.8229 N   0  0  0  0  0  0  0  0  0  0  0  0
   -1.7968   -0.5791   30.6285 C   0  0  0  0  0  0  0  0  0  0  0  0
   -2.6619    0.5388   30.7659 C   0  0  0  0  0  0  0  0  0  0  0  0
   -3.6717    0.3402   31.6226 N   0  0  0  0  0  0  0  0  0  0  0  0
   -3.4522   -0.9034   32.0910 N   0  0  0  0  0  0  0  0  0  0  0  0
   -4.3692   -1.5179   33.0464 C   0  0  0  0  0  0  0  0  0  0  0  0
   -5.5872   -2.1171   32.3436 C   0  0  0  0  0  0  0  0  0  0  0  0
   -6.7636   -1.2379   32.7457 C   0  0  0  0  0  0  0  0  0  0  0  0
   -6.4509   -0.8669   34.1794 C   0  0  0  0  0  0  0  0  0  0  0  0
   -4.9482   -0.5957   34.1464 C   0  0  0  0  0  0  0  0  0  0  0  0
   -2.3574   -1.4989   31.4964 C   0  0  0  0  0  0  0  0  0  0  0  0
    1.3106   -1.5092   28.5798 C   0  0  0  0  0  0  0  0  0  0  0  0
    2.3505   -2.4039   28.1549 C   0  0  0  0  0  0  0  0  0  0  0  0
    3.1127   -1.7236   27.2385 C   0  0  0  0  0  0  0  0  0  0  0  0
    2.5425   -0.4968   27.1434 N   0  0  0  0  0  0  0  0  0  0  0  0
    1.4495   -0.3232   27.9392 N   0  0  0  0  0  0  0  0  0  0  0  0
   -0.3445    0.0864   29.2666 H   0  0  0  0  0  0  0  0  0  0  0  0
   -2.5961    1.4942   30.2629 H   0  0  0  0  0  0  0  0  0  0  0  0
   -3.7949   -2.3220   33.5251 H   0  0  0  0  0  0  0  0  0  0  0  0
   -5.7266   -3.1243   32.7441 H   0  0  0  0  0  0  0  0  0  0  0  0
   -5.4905   -2.1973   31.2562 H   0  0  0  0  0  0  0  0  0  0  0  0
   -7.7179   -1.7516   32.6426 H   0  0  0  0  0  0  0  0  0  0  0  0
   -6.7887   -0.3389   32.1192 H   0  0  0  0  0  0  0  0  0  0  0  0
   -7.0216    0.0001   34.5238 H   0  0  0  0  0  0  0  0  0  0  0  0
   -6.6718   -1.7075   34.8414 H   0  0  0  0  0  0  0  0  0  0  0  0
   -4.7686    0.4636   33.9325 H   0  0  0  0  0  0  0  0  0  0  0  0
   -4.4924   -0.8059   35.1200 H   0  0  0  0  0  0  0  0  0  0  0  0
   -2.0670   -2.5096   31.7484 H   0  0  0  0  0  0  0  0  0  0  0  0
    2.4939   -3.4188   28.4960 H   0  0  0  0  0  0  0  0  0  0  0  0
    3.9760   -2.0013   26.6483 H   0  0  0  0  0  0  0  0  0  0  0  0
    2.8403    0.2672   26.5460 H   0  0  0  0  0  0  0  0  0  0  0  0
  1  2  2  0
  2  3  1  0
  3  4  1  0
  4  5  1  0
  5  6  2  0
  6  7  1  0
  7  8  1  0
  8  9  1  0
  9 10  1  0
 10 11  1  0
 11 12  1  0
  7 13  1  0
  2 14  1  0
 14 15  1  0
 15 16  2  0
 16 17  1  0
 17 18  1  0
 13  4  2  0
 18 14  2  0
 12  8  1  0
  3 19  1  0
  5 20  1  0
  8 21  1  0
  9 22  1  0
  9 23  1  0
 10 24  1  0
 10 25  1  0
 11 26  1  0
 11 27  1  0
 12 28  1  0
 12 29  1  0
 13 30  1  0
 15 31  1  0
 16 32  1  0
 17 33  1  0
M  END
>  <Energy>  (390) 
49.364425383612321

>  <compound_id>  (390) 
18706

>  <target_id>  (390) 
1

>  <reference_id>  (390) 
122

>  <inspiration_ids>  (390) 
[122, 7]

>  <energy_score>  (390) 
-51.501472266353915

>  <distance_score>  (390) 
12.901275293267354

>  <path>  (390) 
/opt/xchem-fragalysis-2/maxwin/BulkDock/SCRATCH/511023/C18706-P122/C18706-P122.minimised.mol

>  <scratch_subdir>  (390) 
/opt/xchem-fragalysis-2/maxwin/BulkDock/SCRATCH/511023/C18706-P122

>  <fragmenstein_runtime>  (390) 
7.825444221496582

>  <fragmenstein_outcome>  (390) 
too moved

>  <fragmenstein_mode>  (390) 
expansion

>  <fragmenstein_error>  (390) 


$$$$
C18706-P7
     RDKit          3D

 33 35  0  0  0  0  0  0  0  0999 V2000
   -1.6497   -0.0201   27.3622 O   0  0  0  0  0  0  0  0  0  0  0  0
   -1.0222   -0.3457   28.3326 C   0  0  0  0  0  0  0  0  0  0  0  0
   -1.4447   -0.5463   29.7126 N   0  0  0  0  0  0  0  0  0  0  0  0
   -2.7097   -0.5094   30.2931 C   0  0  0  0  0  0  0  0  0  0  0  0
   -3.9680   -0.3861   29.6549 C   0  0  0  0  0  0  0  0  0  0  0  0
   -4.9984   -0.3670   30.5050 N   0  0  0  0  0  0  0  0  0  0  0  0
   -4.4218   -0.4206   31.7216 N   0  0  0  0  0  0  0  0  0  0  0  0
   -5.2407   -0.1316   32.8921 C   0  0  0  0  0  0  0  0  0  0  0  0
   -4.7349   -0.6981   34.2267 C   0  0  0  0  0  0  0  0  0  0  0  0
   -5.9731   -1.2063   34.9678 C   0  0  0  0  0  0  0  0  0  0  0  0
   -7.1709   -0.6256   34.2463 C   0  0  0  0  0  0  0  0  0  0  0  0
   -6.7003   -0.6116   32.8024 C   0  0  0  0  0  0  0  0  0  0  0  0
   -3.0467   -0.5517   31.6360 C   0  0  0  0  0  0  0  0  0  0  0  0
    0.4611   -0.6192   28.1137 C   0  0  0  0  0  0  0  0  0  0  0  0
    1.1692   -1.8523   28.2681 C   0  0  0  0  0  0  0  0  0  0  0  0
    2.4132   -1.6623   27.7070 C   0  0  0  0  0  0  0  0  0  0  0  0
    2.4170   -0.3840   27.2460 N   0  0  0  0  0  0  0  0  0  0  0  0
    1.2872    0.2961   27.5515 N   0  0  0  0  0  0  0  0  0  0  0  0
   -0.6305   -0.7386   30.2832 H   0  0  0  0  0  0  0  0  0  0  0  0
   -4.1695   -0.3123   28.5936 H   0  0  0  0  0  0  0  0  0  0  0  0
   -5.2425    0.9653   32.9649 H   0  0  0  0  0  0  0  0  0  0  0  0
   -4.2381    0.0902   34.8040 H   0  0  0  0  0  0  0  0  0  0  0  0
   -4.0158   -1.5156   34.1061 H   0  0  0  0  0  0  0  0  0  0  0  0
   -5.9878   -2.2920   34.8624 H   0  0  0  0  0  0  0  0  0  0  0  0
   -5.9572   -0.9558   36.0319 H   0  0  0  0  0  0  0  0  0  0  0  0
   -7.3714    0.3944   34.5933 H   0  0  0  0  0  0  0  0  0  0  0  0
   -8.0713   -1.2272   34.3912 H   0  0  0  0  0  0  0  0  0  0  0  0
   -6.7497   -1.6178   32.3717 H   0  0  0  0  0  0  0  0  0  0  0  0
   -7.3061    0.0545   32.1827 H   0  0  0  0  0  0  0  0  0  0  0  0
   -2.4360   -0.6001   32.5253 H   0  0  0  0  0  0  0  0  0  0  0  0
    0.7817   -2.7831   28.6558 H   0  0  0  0  0  0  0  0  0  0  0  0
    3.2536   -2.3208   27.5415 H   0  0  0  0  0  0  0  0  0  0  0  0
    3.1399    0.0823   26.7048 H   0  0  0  0  0  0  0  0  0  0  0  0
  1  2  2  0
  2  3  1  0
  3  4  1  0
  4  5  1  0
  5  6  2  0
  6  7  1  0
  7  8  1  0
  8  9  1  0
  9 10  1  0
 10 11  1  0
 11 12  1  0
  7 13  1  0
  2 14  1  0
 14 15  1  0
 15 16  2  0
 16 17  1  0
 17 18  1  0
 13  4  2  0
 18 14  2  0
 12  8  1  0
  3 19  1  0
  5 20  1  0
  8 21  1  0
  9 22  1  0
  9 23  1  0
 10 24  1  0
 10 25  1  0
 11 26  1  0
 11 27  1  0
 12 28  1  0
 12 29  1  0
 13 30  1  0
 15 31  1  0
 16 32  1  0
 17 33  1  0
M  END
>  <Energy>  (391) 
67.855800390665038

>  <compound_id>  (391) 
18706

>  <target_id>  (391) 
1

>  <reference_id>  (391) 
7

>  <inspiration_ids>  (391) 
[122, 7]

>  <energy_score>  (391) 
-33.010097259301915

>  <distance_score>  (391) 
12.896731841220038

>  <path>  (391) 
/opt/xchem-fragalysis-2/maxwin/BulkDock/SCRATCH/511023/C18706-P7/C18706-P7.minimised.mol

>  <scratch_subdir>  (391) 
/opt/xchem-fragalysis-2/maxwin/BulkDock/SCRATCH/511023/C18706-P7

>  <fragmenstein_runtime>  (391) 
9.681645393371582

>  <fragmenstein_outcome>  (391) 
too moved

>  <fragmenstein_mode>  (391) 
expansion

>  <fragmenstein_error>  (391) 


$$$$
C18707-P122
     RDKit          3D

 50 52  0  0  0  0  0  0  0  0999 V2000
   -1.9470   -2.2992   31.5374 C   0  0  0  0  0  0  0  0  0  0  0  0
   -1.7680   -0.8858   32.0861 C   0  0  0  0  0  0  0  0  0  0  0  0
   -3.0873   -0.2856   32.5750 N   0  0  0  0  0  0  0  0  0  0  0  0
   -3.8075   -1.0780   33.6272 C   0  0  0  0  0  0  0  0  0  0  0  0
   -5.0819   -0.3909   34.2015 C   0  0  0  0  0  0  0  0  0  0  0  0
   -5.4021    0.9902   34.2539 C   0  0  0  0  0  0  0  0  0  0  0  0
   -6.6027    1.0894   34.9224 C   0  0  0  0  0  0  0  0  0  0  0  0
   -6.9209   -0.1740   35.3276 N   0  0  0  0  0  0  0  0  0  0  0  0
   -7.9371   -0.5568   36.2952 C   0  0  0  0  0  0  0  0  0  0  0  0
   -8.2276    0.4170   37.4435 C   0  0  0  0  0  0  0  0  0  0  0  0
   -9.4796   -0.1774   38.1018 C   0  0  0  0  0  0  0  0  0  0  0  0
  -10.2310   -0.9131   36.9921 C   0  0  0  0  0  0  0  0  0  0  0  0
   -9.3429   -0.8023   35.7529 C   0  0  0  0  0  0  0  0  0  0  0  0
   -6.0543   -1.1027   34.8242 N   0  0  0  0  0  0  0  0  0  0  0  0
   -1.0772    0.0454   30.9821 C   0  0  0  0  0  0  0  0  0  0  0  0
   -0.5769    1.3302   31.6508 C   0  0  0  0  0  0  0  0  0  0  0  0
   -0.0134   -0.4960   30.0860 N   0  0  0  0  0  0  0  0  0  0  0  0
    1.4223   -0.5658   30.2516 C   0  0  0  0  0  0  0  0  0  0  0  0
    2.1152   -0.2788   31.1856 O   0  0  0  0  0  0  0  0  0  0  0  0
    2.1340   -0.9842   28.9689 C   0  0  0  0  0  0  0  0  0  0  0  0
    3.5433   -0.8778   28.6934 C   0  0  0  0  0  0  0  0  0  0  0  0
    3.7225   -1.2851   27.3927 C   0  0  0  0  0  0  0  0  0  0  0  0
    2.4861   -1.6579   26.9570 N   0  0  0  0  0  0  0  0  0  0  0  0
    1.5016   -1.4475   27.8707 N   0  0  0  0  0  0  0  0  0  0  0  0
   -2.2444   -2.9831   32.3337 H   0  0  0  0  0  0  0  0  0  0  0  0
   -2.6975   -2.3326   30.7442 H   0  0  0  0  0  0  0  0  0  0  0  0
   -1.0091   -2.6930   31.1327 H   0  0  0  0  0  0  0  0  0  0  0  0
   -1.0896   -0.9389   32.9471 H   0  0  0  0  0  0  0  0  0  0  0  0
   -3.7089   -0.2408   31.7718 H   0  0  0  0  0  0  0  0  0  0  0  0
   -4.1286   -2.0315   33.1967 H   0  0  0  0  0  0  0  0  0  0  0  0
   -3.1291   -1.2688   34.4661 H   0  0  0  0  0  0  0  0  0  0  0  0
   -4.8041    1.8097   33.8884 H   0  0  0  0  0  0  0  0  0  0  0  0
   -7.1933    1.9507   35.1991 H   0  0  0  0  0  0  0  0  0  0  0  0
   -7.5792   -1.4680   36.7678 H   0  0  0  0  0  0  0  0  0  0  0  0
   -7.3928    0.4959   38.1471 H   0  0  0  0  0  0  0  0  0  0  0  0
   -8.4531    1.4240   37.0737 H   0  0  0  0  0  0  0  0  0  0  0  0
   -9.1902   -0.8874   38.8855 H   0  0  0  0  0  0  0  0  0  0  0  0
  -10.0933    0.5987   38.5695 H   0  0  0  0  0  0  0  0  0  0  0  0
  -10.3892   -1.9597   37.2718 H   0  0  0  0  0  0  0  0  0  0  0  0
  -11.2161   -0.4718   36.8088 H   0  0  0  0  0  0  0  0  0  0  0  0
   -9.6730    0.0670   35.1762 H   0  0  0  0  0  0  0  0  0  0  0  0
   -9.4037   -1.6909   35.1200 H   0  0  0  0  0  0  0  0  0  0  0  0
   -1.8717    0.3288   30.2782 H   0  0  0  0  0  0  0  0  0  0  0  0
   -0.2336    2.0533   30.9034 H   0  0  0  0  0  0  0  0  0  0  0  0
    0.2595    1.1267   32.3274 H   0  0  0  0  0  0  0  0  0  0  0  0
   -1.3614    1.7978   32.2480 H   0  0  0  0  0  0  0  0  0  0  0  0
   -0.2494   -0.7445   29.1243 H   0  0  0  0  0  0  0  0  0  0  0  0
    4.2963   -0.5046   29.3740 H   0  0  0  0  0  0  0  0  0  0  0  0
    4.5850   -1.3315   26.7478 H   0  0  0  0  0  0  0  0  0  0  0  0
    2.2276   -2.0341   26.0427 H   0  0  0  0  0  0  0  0  0  0  0  0
  1  2  1  0
  2  3  1  0
  3  4  1  0
  4  5  1  0
  5  6  1  0
  6  7  2  0
  7  8  1  0
  8  9  1  0
  9 10  1  0
 10 11  1  0
 11 12  1  0
 12 13  1  0
  8 14  1  0
  2 15  1  0
 15 16  1  0
 15 17  1  0
 17 18  1  0
 18 19  2  0
 18 20  1  0
 20 21  1  0
 21 22  2  0
 22 23  1  0
 23 24  1  0
 14  5  2  0
 24 20  2  0
 13  9  1  0
  1 25  1  0
  1 26  1  0
  1 27  1  0
  2 28  1  0
  3 29  1  0
  4 30  1  0
  4 31  1  0
  6 32  1  0
  7 33  1  0
  9 34  1  0
 10 35  1  0
 10 36  1  0
 11 37  1  0
 11 38  1  0
 12 39  1  0
 12 40  1  0
 13 41  1  0
 13 42  1  0
 15 43  1  0
 16 44  1  0
 16 45  1  0
 16 46  1  0
 17 47  1  0
 21 48  1  0
 22 49  1  0
 23 50  1  0
M  END
>  <Energy>  (392) 
91.116633053652649

>  <compound_id>  (392) 
18707

>  <target_id>  (392) 
1

>  <reference_id>  (392) 
122

>  <inspiration_ids>  (392) 
[122, 7]

>  <energy_score>  (392) 
-14.511108003866411

>  <distance_score>  (392) 
11.23925555903745

>  <path>  (392) 
/opt/xchem-fragalysis-2/maxwin/BulkDock/SCRATCH/511023/C18707-P122/C18707-P122.minimised.mol

>  <scratch_subdir>  (392) 
/opt/xchem-fragalysis-2/maxwin/BulkDock/SCRATCH/511023/C18707-P122

>  <fragmenstein_runtime>  (392) 
14.345888376235962

>  <fragmenstein_outcome>  (392) 
too moved

>  <fragmenstein_mode>  (392) 
expansion

>  <fragmenstein_error>  (392) 


$$$$
C18707-P7
     RDKit          3D

 50 52  0  0  0  0  0  0  0  0999 V2000
   -1.7248    0.2686   29.7858 C   0  0  0  0  0  0  0  0  0  0  0  0
   -1.1431   -0.5575   30.9330 C   0  0  0  0  0  0  0  0  0  0  0  0
   -1.8491   -0.1198   32.1995 N   0  0  0  0  0  0  0  0  0  0  0  0
   -3.0567   -0.9374   32.5554 C   0  0  0  0  0  0  0  0  0  0  0  0
   -4.0615   -0.2209   33.4910 C   0  0  0  0  0  0  0  0  0  0  0  0
   -3.9757    1.0932   34.0164 C   0  0  0  0  0  0  0  0  0  0  0  0
   -5.1001    1.2751   34.7832 C   0  0  0  0  0  0  0  0  0  0  0  0
   -5.8052    0.1047   34.7272 N   0  0  0  0  0  0  0  0  0  0  0  0
   -6.9414   -0.2113   35.5835 C   0  0  0  0  0  0  0  0  0  0  0  0
   -7.8690   -1.3229   35.1182 C   0  0  0  0  0  0  0  0  0  0  0  0
   -9.0746   -1.2043   36.0508 C   0  0  0  0  0  0  0  0  0  0  0  0
   -9.2259    0.2850   36.3253 C   0  0  0  0  0  0  0  0  0  0  0  0
   -7.9481    0.9349   35.7902 C   0  0  0  0  0  0  0  0  0  0  0  0
   -5.1984   -0.8213   33.9296 N   0  0  0  0  0  0  0  0  0  0  0  0
    0.4439   -0.3667   30.9312 C   0  0  0  0  0  0  0  0  0  0  0  0
    1.1062   -1.3319   31.9175 C   0  0  0  0  0  0  0  0  0  0  0  0
    1.1621   -0.4653   29.6266 N   0  0  0  0  0  0  0  0  0  0  0  0
    2.3378    0.2408   29.1283 C   0  0  0  0  0  0  0  0  0  0  0  0
    2.9730    1.1332   29.6118 O   0  0  0  0  0  0  0  0  0  0  0  0
    2.8705   -0.2930   27.7933 C   0  0  0  0  0  0  0  0  0  0  0  0
    2.9532   -1.6376   27.3221 C   0  0  0  0  0  0  0  0  0  0  0  0
    3.5561   -1.5823   26.0852 C   0  0  0  0  0  0  0  0  0  0  0  0
    3.7783   -0.2647   25.8335 N   0  0  0  0  0  0  0  0  0  0  0  0
    3.4608    0.5240   26.8812 N   0  0  0  0  0  0  0  0  0  0  0  0
   -1.4675   -0.1718   28.8167 H   0  0  0  0  0  0  0  0  0  0  0  0
   -2.8115    0.3199   29.8439 H   0  0  0  0  0  0  0  0  0  0  0  0
   -1.3448    1.2948   29.8033 H   0  0  0  0  0  0  0  0  0  0  0  0
   -1.3500   -1.6205   30.7546 H   0  0  0  0  0  0  0  0  0  0  0  0
   -1.2077   -0.1860   32.9898 H   0  0  0  0  0  0  0  0  0  0  0  0
   -2.7236   -1.8614   33.0423 H   0  0  0  0  0  0  0  0  0  0  0  0
   -3.5939   -1.2190   31.6493 H   0  0  0  0  0  0  0  0  0  0  0  0
   -3.1754    1.8044   33.8649 H   0  0  0  0  0  0  0  0  0  0  0  0
   -5.4201    2.1122   35.3877 H   0  0  0  0  0  0  0  0  0  0  0  0
   -6.5038   -0.4869   36.5532 H   0  0  0  0  0  0  0  0  0  0  0  0
   -8.1557   -1.1784   34.0721 H   0  0  0  0  0  0  0  0  0  0  0  0
   -7.4042   -2.2990   35.2005 H   0  0  0  0  0  0  0  0  0  0  0  0
   -8.8657   -1.6997   37.0025 H   0  0  0  0  0  0  0  0  0  0  0  0
   -9.9777   -1.6566   35.6325 H   0  0  0  0  0  0  0  0  0  0  0  0
  -10.1092    0.7038   35.8328 H   0  0  0  0  0  0  0  0  0  0  0  0
   -9.3373    0.4659   37.4001 H   0  0  0  0  0  0  0  0  0  0  0  0
   -7.5713    1.6959   36.4816 H   0  0  0  0  0  0  0  0  0  0  0  0
   -8.1620    1.4365   34.8375 H   0  0  0  0  0  0  0  0  0  0  0  0
    0.6522    0.6520   31.2847 H   0  0  0  0  0  0  0  0  0  0  0  0
    2.1869   -1.1574   31.9664 H   0  0  0  0  0  0  0  0  0  0  0  0
    0.9556   -2.3710   31.6046 H   0  0  0  0  0  0  0  0  0  0  0  0
    0.7072   -1.2178   32.9294 H   0  0  0  0  0  0  0  0  0  0  0  0
    0.9369   -1.2222   28.9917 H   0  0  0  0  0  0  0  0  0  0  0  0
    2.5919   -2.5298   27.8108 H   0  0  0  0  0  0  0  0  0  0  0  0
    3.7319   -2.3351   25.3302 H   0  0  0  0  0  0  0  0  0  0  0  0
    4.0778    0.1638   24.9545 H   0  0  0  0  0  0  0  0  0  0  0  0
  1  2  1  0
  2  3  1  0
  3  4  1  0
  4  5  1  0
  5  6  1  0
  6  7  2  0
  7  8  1  0
  8  9  1  0
  9 10  1  0
 10 11  1  0
 11 12  1  0
 12 13  1  0
  8 14  1  0
  2 15  1  0
 15 16  1  0
 15 17  1  0
 17 18  1  0
 18 19  2  0
 18 20  1  0
 20 21  1  0
 21 22  2  0
 22 23  1  0
 23 24  1  0
 14  5  2  0
 24 20  2  0
 13  9  1  0
  1 25  1  0
  1 26  1  0
  1 27  1  0
  2 28  1  0
  3 29  1  0
  4 30  1  0
  4 31  1  0
  6 32  1  0
  7 33  1  0
  9 34  1  0
 10 35  1  0
 10 36  1  0
 11 37  1  0
 11 38  1  0
 12 39  1  0
 12 40  1  0
 13 41  1  0
 13 42  1  0
 15 43  1  0
 16 44  1  0
 16 45  1  0
 16 46  1  0
 17 47  1  0
 21 48  1  0
 22 49  1  0
 23 50  1  0
M  END
>  <Energy>  (393) 
106.64628273284869

>  <compound_id>  (393) 
18707

>  <target_id>  (393) 
1

>  <reference_id>  (393) 
7

>  <inspiration_ids>  (393) 
[122, 7]

>  <energy_score>  (393) 
1.0185416753313348

>  <distance_score>  (393) 
11.105105495514222

>  <path>  (393) 
/opt/xchem-fragalysis-2/maxwin/BulkDock/SCRATCH/511023/C18707-P7/C18707-P7.minimised.mol

>  <scratch_subdir>  (393) 
/opt/xchem-fragalysis-2/maxwin/BulkDock/SCRATCH/511023/C18707-P7

>  <fragmenstein_runtime>  (393) 
13.289381742477417

>  <fragmenstein_outcome>  (393) 
too moved

>  <fragmenstein_mode>  (393) 
expansion

>  <fragmenstein_error>  (393) 


$$$$
C18708-P122
     RDKit          3D

 46 48  0  0  0  0  0  0  0  0999 V2000
    2.3028   -0.1745   30.2665 C   0  0  0  0  0  0  0  0  0  0  0  0
    2.8143   -0.6833   28.9803 N   0  0  0  0  0  0  0  0  0  0  0  0
    1.5171   -1.5506   29.0663 C   0  0  0  0  0  0  0  0  0  0  0  0
    0.0730   -0.9327   28.8910 C   0  0  0  0  0  0  0  0  0  0  0  0
   -0.6615   -0.4648   30.0835 N   0  0  0  0  0  0  0  0  0  0  0  0
   -1.5981   -1.1465   30.9483 C   0  0  0  0  0  0  0  0  0  0  0  0
   -1.9556   -2.2876   30.9640 O   0  0  0  0  0  0  0  0  0  0  0  0
   -2.2108   -0.2138   31.9292 C   0  0  0  0  0  0  0  0  0  0  0  0
   -1.6728    0.9046   32.5545 C   0  0  0  0  0  0  0  0  0  0  0  0
   -2.6617    1.4028   33.4183 C   0  0  0  0  0  0  0  0  0  0  0  0
   -3.7974    0.7248   33.3114 N   0  0  0  0  0  0  0  0  0  0  0  0
   -3.4640   -0.3399   32.5365 N   0  0  0  0  0  0  0  0  0  0  0  0
   -4.2792   -1.5451   32.6650 C   0  0  0  0  0  0  0  0  0  0  0  0
   -3.7560   -2.3194   33.8740 C   0  0  0  0  0  0  0  0  0  0  0  0
   -4.9561   -2.5267   34.7666 C   0  0  0  0  0  0  0  0  0  0  0  0
   -5.9524   -1.4364   34.4241 C   0  0  0  0  0  0  0  0  0  0  0  0
   -5.7858   -1.3045   32.9248 C   0  0  0  0  0  0  0  0  0  0  0  0
    3.9557   -1.5196   28.6853 C   0  0  0  0  0  0  0  0  0  0  0  0
    4.7214   -2.0839   29.4238 O   0  0  0  0  0  0  0  0  0  0  0  0
    4.2913   -1.6103   27.2106 C   0  0  0  0  0  0  0  0  0  0  0  0
    5.4024   -2.3361   26.6487 C   0  0  0  0  0  0  0  0  0  0  0  0
    5.3841   -2.0970   25.2967 C   0  0  0  0  0  0  0  0  0  0  0  0
    4.3115   -1.2823   25.0966 N   0  0  0  0  0  0  0  0  0  0  0  0
    3.6630   -0.9346   26.2304 N   0  0  0  0  0  0  0  0  0  0  0  0
    2.1417   -0.8920   31.0847 H   0  0  0  0  0  0  0  0  0  0  0  0
    3.1607    0.3969   30.6544 H   0  0  0  0  0  0  0  0  0  0  0  0
    1.5444    0.6035   30.1444 H   0  0  0  0  0  0  0  0  0  0  0  0
    1.6163   -2.1760   28.1637 H   0  0  0  0  0  0  0  0  0  0  0  0
    1.5638   -2.3110   29.8655 H   0  0  0  0  0  0  0  0  0  0  0  0
   -0.5629   -1.7095   28.4502 H   0  0  0  0  0  0  0  0  0  0  0  0
    0.1147   -0.0933   28.1886 H   0  0  0  0  0  0  0  0  0  0  0  0
   -0.6652    0.5220   30.3056 H   0  0  0  0  0  0  0  0  0  0  0  0
   -0.6724    1.2955   32.4304 H   0  0  0  0  0  0  0  0  0  0  0  0
   -2.6109    2.2539   34.0861 H   0  0  0  0  0  0  0  0  0  0  0  0
   -4.1721   -2.1169   31.7413 H   0  0  0  0  0  0  0  0  0  0  0  0
   -3.2988   -3.2716   33.5994 H   0  0  0  0  0  0  0  0  0  0  0  0
   -2.9834   -1.7707   34.4283 H   0  0  0  0  0  0  0  0  0  0  0  0
   -5.3824   -3.5111   34.5506 H   0  0  0  0  0  0  0  0  0  0  0  0
   -4.6337   -2.4676   35.8079 H   0  0  0  0  0  0  0  0  0  0  0  0
   -5.6840   -0.5027   34.9301 H   0  0  0  0  0  0  0  0  0  0  0  0
   -6.9781   -1.6888   34.7056 H   0  0  0  0  0  0  0  0  0  0  0  0
   -6.3613   -2.0913   32.4243 H   0  0  0  0  0  0  0  0  0  0  0  0
   -6.1585   -0.3429   32.5619 H   0  0  0  0  0  0  0  0  0  0  0  0
    6.1089   -2.9431   27.1976 H   0  0  0  0  0  0  0  0  0  0  0  0
    6.0033   -2.4323   24.4789 H   0  0  0  0  0  0  0  0  0  0  0  0
    3.9609   -0.9081   24.2150 H   0  0  0  0  0  0  0  0  0  0  0  0
  1  2  1  0
  2  3  1  0
  3  4  1  0
  4  5  1  0
  5  6  1  0
  6  7  2  0
  6  8  1  0
  8  9  2  0
  9 10  1  0
 10 11  2  0
 11 12  1  0
 12 13  1  0
 13 14  1  0
 14 15  1  0
 15 16  1  0
 16 17  1  0
  2 18  1  0
 18 19  2  0
 18 20  1  0
 20 21  1  0
 21 22  2  0
 22 23  1  0
 23 24  1  0
 12  8  1  0
 17 13  1  0
 24 20  2  0
  1 25  1  0
  1 26  1  0
  1 27  1  0
  3 28  1  0
  3 29  1  0
  4 30  1  0
  4 31  1  0
  5 32  1  0
  9 33  1  0
 10 34  1  0
 13 35  1  0
 14 36  1  0
 14 37  1  0
 15 38  1  0
 15 39  1  0
 16 40  1  0
 16 41  1  0
 17 42  1  0
 17 43  1  0
 21 44  1  0
 22 45  1  0
 23 46  1  0
M  END
>  <Energy>  (394) 
112.54669477639749

>  <compound_id>  (394) 
18708

>  <target_id>  (394) 
1

>  <reference_id>  (394) 
122

>  <inspiration_ids>  (394) 
[122, 7]

>  <energy_score>  (394) 
26.48892294658873

>  <distance_score>  (394) 
11.729343151788779

>  <path>  (394) 
/opt/xchem-fragalysis-2/maxwin/BulkDock/SCRATCH/511023/C18708-P122/C18708-P122.minimised.mol

>  <scratch_subdir>  (394) 
/opt/xchem-fragalysis-2/maxwin/BulkDock/SCRATCH/511023/C18708-P122

>  <fragmenstein_runtime>  (394) 
20.119426727294922

>  <fragmenstein_outcome>  (394) 
too moved

>  <fragmenstein_mode>  (394) 
expansion

>  <fragmenstein_error>  (394) 


$$$$
C18708-P7
     RDKit          3D

 46 48  0  0  0  0  0  0  0  0999 V2000
   -5.3895    6.4145   25.7164 C   0  0  0  0  0  0  0  0  0  0  0  0
   -4.3866    5.3624   25.5756 N   0  0  0  0  0  0  0  0  0  0  0  0
   -5.5974    4.4578   26.1623 C   0  0  0  0  0  0  0  0  0  0  0  0
   -6.8037    4.8849   27.2213 C   0  0  0  0  0  0  0  0  0  0  0  0
   -7.6980    3.8039   27.6934 N   0  0  0  0  0  0  0  0  0  0  0  0
   -8.4625    3.6624   28.9432 C   0  0  0  0  0  0  0  0  0  0  0  0
   -8.6135    4.4253   29.8547 O   0  0  0  0  0  0  0  0  0  0  0  0
   -9.0355    2.2469   29.0395 C   0  0  0  0  0  0  0  0  0  0  0  0
   -9.8782    1.8181   28.0233 C   0  0  0  0  0  0  0  0  0  0  0  0
   -9.8639    0.4376   28.0379 C   0  0  0  0  0  0  0  0  0  0  0  0
   -9.1968   -0.1030   29.0468 N   0  0  0  0  0  0  0  0  0  0  0  0
   -8.8527    0.9679   29.9917 N   0  0  0  0  0  0  0  0  0  0  0  0
   -7.8270    0.4492   31.3678 C   0  0  0  0  0  0  0  0  0  0  0  0
   -7.1804   -1.0182   31.9862 C   0  0  0  0  0  0  0  0  0  0  0  0
   -6.1145   -0.5986   33.0204 C   0  0  0  0  0  0  0  0  0  0  0  0
   -6.6605    0.6986   33.5936 C   0  0  0  0  0  0  0  0  0  0  0  0
   -8.0100    0.8527   32.8786 C   0  0  0  0  0  0  0  0  0  0  0  0
   -3.8232    4.7420   24.3813 C   0  0  0  0  0  0  0  0  0  0  0  0
   -4.1128    4.8818   23.2218 O   0  0  0  0  0  0  0  0  0  0  0  0
   -2.5884    3.8430   24.5987 C   0  0  0  0  0  0  0  0  0  0  0  0
   -1.6673    3.8063   25.6919 C   0  0  0  0  0  0  0  0  0  0  0  0
   -0.4890    3.2729   25.1991 C   0  0  0  0  0  0  0  0  0  0  0  0
   -0.7208    3.0656   23.8768 N   0  0  0  0  0  0  0  0  0  0  0  0
   -2.0232    3.1440   23.5661 N   0  0  0  0  0  0  0  0  0  0  0  0
   -6.2928    6.3006   25.0991 H   0  0  0  0  0  0  0  0  0  0  0  0
   -5.5040    6.7797   26.7423 H   0  0  0  0  0  0  0  0  0  0  0  0
   -4.9088    7.2736   25.2224 H   0  0  0  0  0  0  0  0  0  0  0  0
   -6.1100    4.0724   25.2824 H   0  0  0  0  0  0  0  0  0  0  0  0
   -5.0855    3.5743   26.5615 H   0  0  0  0  0  0  0  0  0  0  0  0
   -7.4868    5.5942   26.7415 H   0  0  0  0  0  0  0  0  0  0  0  0
   -6.3898    5.3780   28.1059 H   0  0  0  0  0  0  0  0  0  0  0  0
   -7.8591    2.9923   27.1131 H   0  0  0  0  0  0  0  0  0  0  0  0
  -10.3220    2.4487   27.2649 H   0  0  0  0  0  0  0  0  0  0  0  0
  -10.3576   -0.2141   27.3401 H   0  0  0  0  0  0  0  0  0  0  0  0
   -7.0183    0.2822   30.7450 H   0  0  0  0  0  0  0  0  0  0  0  0
   -7.8494   -1.5607   32.6431 H   0  0  0  0  0  0  0  0  0  0  0  0
   -6.8229   -1.7504   31.2676 H   0  0  0  0  0  0  0  0  0  0  0  0
   -5.1293   -0.4328   32.5783 H   0  0  0  0  0  0  0  0  0  0  0  0
   -5.9942   -1.3639   33.7953 H   0  0  0  0  0  0  0  0  0  0  0  0
   -5.9540    1.5084   33.3947 H   0  0  0  0  0  0  0  0  0  0  0  0
   -6.7894    0.6311   34.6794 H   0  0  0  0  0  0  0  0  0  0  0  0
   -8.5197    0.0689   33.4177 H   0  0  0  0  0  0  0  0  0  0  0  0
   -8.7037    1.6543   33.1294 H   0  0  0  0  0  0  0  0  0  0  0  0
   -1.8094    4.2549   26.6661 H   0  0  0  0  0  0  0  0  0  0  0  0
    0.4898    3.1464   25.6403 H   0  0  0  0  0  0  0  0  0  0  0  0
   -0.0623    2.8487   23.1346 H   0  0  0  0  0  0  0  0  0  0  0  0
  1  2  1  0
  2  3  1  0
  3  4  1  0
  4  5  1  0
  5  6  1  0
  6  7  2  0
  6  8  1  0
  8  9  2  0
  9 10  1  0
 10 11  2  0
 11 12  1  0
 12 13  1  0
 13 14  1  0
 14 15  1  0
 15 16  1  0
 16 17  1  0
  2 18  1  0
 18 19  2  0
 18 20  1  0
 20 21  1  0
 21 22  2  0
 22 23  1  0
 23 24  1  0
 12  8  1  0
 17 13  1  0
 24 20  2  0
  1 25  1  0
  1 26  1  0
  1 27  1  0
  3 28  1  0
  3 29  1  0
  4 30  1  0
  4 31  1  0
  5 32  1  0
  9 33  1  0
 10 34  1  0
 13 35  1  0
 14 36  1  0
 14 37  1  0
 15 38  1  0
 15 39  1  0
 16 40  1  0
 16 41  1  0
 17 42  1  0
 17 43  1  0
 21 44  1  0
 22 45  1  0
 23 46  1  0
M  END
>  <Energy>  (395) 
318.33743069010529

>  <compound_id>  (395) 
18708

>  <target_id>  (395) 
1

>  <reference_id>  (395) 
7

>  <inspiration_ids>  (395) 
[122, 7]

>  <energy_score>  (395) 
232.2796588603004

>  <distance_score>  (395) 
13.23803102014453

>  <path>  (395) 
/opt/xchem-fragalysis-2/maxwin/BulkDock/SCRATCH/511023/C18708-P7/C18708-P7.minimised.mol

>  <scratch_subdir>  (395) 
/opt/xchem-fragalysis-2/maxwin/BulkDock/SCRATCH/511023/C18708-P7

>  <fragmenstein_runtime>  (395) 
15.801403522491455

>  <fragmenstein_outcome>  (395) 
too moved

>  <fragmenstein_mode>  (395) 
expansion

>  <fragmenstein_error>  (395) 


$$$$
C18709-P122
     RDKit          3D

 50 52  0  0  0  0  0  0  0  0999 V2000
   -0.1930    1.0008   30.0569 C   0  0  0  0  0  0  0  0  0  0  0  0
   -0.5466   -0.2989   30.8057 C   0  0  0  0  0  0  0  0  0  0  0  0
   -0.1456   -1.5472   29.8697 C   0  0  0  0  0  0  0  0  0  0  0  0
    1.2389   -2.2829   30.0059 N   0  0  0  0  0  0  0  0  0  0  0  0
    0.6056   -2.7837   31.2459 C   0  0  0  0  0  0  0  0  0  0  0  0
    2.3219   -1.3509   29.8121 C   0  0  0  0  0  0  0  0  0  0  0  0
    2.9235   -0.6764   30.6085 O   0  0  0  0  0  0  0  0  0  0  0  0
    2.8299   -1.3129   28.3745 C   0  0  0  0  0  0  0  0  0  0  0  0
    3.9519   -0.5542   27.8811 C   0  0  0  0  0  0  0  0  0  0  0  0
    4.1096   -0.8940   26.5575 C   0  0  0  0  0  0  0  0  0  0  0  0
    3.1211   -1.7939   26.3001 N   0  0  0  0  0  0  0  0  0  0  0  0
    2.3728   -2.1039   27.3847 N   0  0  0  0  0  0  0  0  0  0  0  0
   -2.0056   -0.2012   31.1666 N   0  0  0  0  0  0  0  0  0  0  0  0
   -2.4317   -0.9404   32.3841 C   0  0  0  0  0  0  0  0  0  0  0  0
   -3.5385   -0.2081   33.1804 C   0  0  0  0  0  0  0  0  0  0  0  0
   -3.4229    1.0859   33.7525 C   0  0  0  0  0  0  0  0  0  0  0  0
   -4.5827    1.2998   34.4517 C   0  0  0  0  0  0  0  0  0  0  0  0
   -5.3231    0.1563   34.3328 N   0  0  0  0  0  0  0  0  0  0  0  0
   -6.4866   -0.1393   35.1531 C   0  0  0  0  0  0  0  0  0  0  0  0
   -7.4185   -1.2324   34.6566 C   0  0  0  0  0  0  0  0  0  0  0  0
   -8.6225   -1.0905   35.5846 C   0  0  0  0  0  0  0  0  0  0  0  0
   -8.7820    0.4071   35.8114 C   0  0  0  0  0  0  0  0  0  0  0  0
   -7.4636    1.0348   35.3444 C   0  0  0  0  0  0  0  0  0  0  0  0
   -4.7131   -0.7758   33.5430 N   0  0  0  0  0  0  0  0  0  0  0  0
   -0.3312    1.8716   30.7067 H   0  0  0  0  0  0  0  0  0  0  0  0
    0.8531    1.0062   29.7380 H   0  0  0  0  0  0  0  0  0  0  0  0
   -0.8181    1.1353   29.1668 H   0  0  0  0  0  0  0  0  0  0  0  0
    0.0457   -0.2613   31.7243 H   0  0  0  0  0  0  0  0  0  0  0  0
   -0.9817   -2.2612   29.7662 H   0  0  0  0  0  0  0  0  0  0  0  0
   -0.0938   -1.1435   28.8458 H   0  0  0  0  0  0  0  0  0  0  0  0
    1.3506   -3.5116   31.6040 H   0  0  0  0  0  0  0  0  0  0  0  0
   -0.2896   -3.4111   31.1315 H   0  0  0  0  0  0  0  0  0  0  0  0
    0.5843   -2.0845   32.0850 H   0  0  0  0  0  0  0  0  0  0  0  0
    4.5515    0.1405   28.4524 H   0  0  0  0  0  0  0  0  0  0  0  0
    4.7866   -0.5653   25.7822 H   0  0  0  0  0  0  0  0  0  0  0  0
    2.8500   -2.2025   25.4046 H   0  0  0  0  0  0  0  0  0  0  0  0
   -2.2395    0.7826   31.2963 H   0  0  0  0  0  0  0  0  0  0  0  0
   -2.7882   -1.9332   32.0893 H   0  0  0  0  0  0  0  0  0  0  0  0
   -1.5887   -1.0719   33.0727 H   0  0  0  0  0  0  0  0  0  0  0  0
   -2.5778    1.7579   33.6864 H   0  0  0  0  0  0  0  0  0  0  0  0
   -4.8992    2.1308   35.0671 H   0  0  0  0  0  0  0  0  0  0  0  0
   -6.0803   -0.4300   36.1324 H   0  0  0  0  0  0  0  0  0  0  0  0
   -7.6847   -1.0711   33.6083 H   0  0  0  0  0  0  0  0  0  0  0  0
   -6.9458   -2.2093   34.7172 H   0  0  0  0  0  0  0  0  0  0  0  0
   -8.3958   -1.5408   36.5539 H   0  0  0  0  0  0  0  0  0  0  0  0
   -9.5260   -1.5639   35.1932 H   0  0  0  0  0  0  0  0  0  0  0  0
   -9.6247    0.8179   35.2466 H   0  0  0  0  0  0  0  0  0  0  0  0
   -8.9677    0.6191   36.8700 H   0  0  0  0  0  0  0  0  0  0  0  0
   -7.0937    1.7653   36.0715 H   0  0  0  0  0  0  0  0  0  0  0  0
   -7.6241    1.5660   34.3974 H   0  0  0  0  0  0  0  0  0  0  0  0
  1  2  1  0
  2  3  1  0
  3  4  1  0
  4  5  1  0
  4  6  1  0
  6  7  2  0
  6  8  1  0
  8  9  1  0
  9 10  2  0
 10 11  1  0
 11 12  1  0
  2 13  1  0
 13 14  1  0
 14 15  1  0
 15 16  1  0
 16 17  2  0
 17 18  1  0
 18 19  1  0
 19 20  1  0
 20 21  1  0
 21 22  1  0
 22 23  1  0
 18 24  1  0
 12  8  2  0
 24 15  2  0
 23 19  1  0
  1 25  1  0
  1 26  1  0
  1 27  1  0
  2 28  1  0
  3 29  1  0
  3 30  1  0
  5 31  1  0
  5 32  1  0
  5 33  1  0
  9 34  1  0
 10 35  1  0
 11 36  1  0
 13 37  1  0
 14 38  1  0
 14 39  1  0
 16 40  1  0
 17 41  1  0
 19 42  1  0
 20 43  1  0
 20 44  1  0
 21 45  1  0
 21 46  1  0
 22 47  1  0
 22 48  1  0
 23 49  1  0
 23 50  1  0
M  END
>  <Energy>  (396) 
174.53476609279826

>  <compound_id>  (396) 
18709

>  <target_id>  (396) 
1

>  <reference_id>  (396) 
122

>  <inspiration_ids>  (396) 
[122, 7]

>  <energy_score>  (396) 
42.362231673077304

>  <distance_score>  (396) 
11.497244748855048

>  <path>  (396) 
/opt/xchem-fragalysis-2/maxwin/BulkDock/SCRATCH/511023/C18709-P122/C18709-P122.minimised.mol

>  <scratch_subdir>  (396) 
/opt/xchem-fragalysis-2/maxwin/BulkDock/SCRATCH/511023/C18709-P122

>  <fragmenstein_runtime>  (396) 
20.7467098236084

>  <fragmenstein_outcome>  (396) 
too moved

>  <fragmenstein_mode>  (396) 
expansion

>  <fragmenstein_error>  (396) 


$$$$
C18709-P7
     RDKit          3D

 50 52  0  0  0  0  0  0  0  0999 V2000
    0.0209    1.1205   29.9867 C   0  0  0  0  0  0  0  0  0  0  0  0
   -0.0806   -0.3937   30.2328 C   0  0  0  0  0  0  0  0  0  0  0  0
    0.3169   -1.1473   28.8432 C   0  0  0  0  0  0  0  0  0  0  0  0
    1.3559   -2.3075   28.7278 N   0  0  0  0  0  0  0  0  0  0  0  0
    0.3810   -2.9779   29.6136 C   0  0  0  0  0  0  0  0  0  0  0  0
    2.6864   -1.8164   28.9922 C   0  0  0  0  0  0  0  0  0  0  0  0
    3.3026   -1.7482   30.0251 O   0  0  0  0  0  0  0  0  0  0  0  0
    3.4431   -1.4236   27.7252 C   0  0  0  0  0  0  0  0  0  0  0  0
    4.8729   -1.4635   27.5522 C   0  0  0  0  0  0  0  0  0  0  0  0
    5.1212   -1.1800   26.2292 C   0  0  0  0  0  0  0  0  0  0  0  0
    3.8954   -0.9691   25.6699 N   0  0  0  0  0  0  0  0  0  0  0  0
    2.8793   -1.0473   26.5633 N   0  0  0  0  0  0  0  0  0  0  0  0
   -1.4585   -0.7733   30.7496 N   0  0  0  0  0  0  0  0  0  0  0  0
   -1.8613   -0.0517   31.9949 C   0  0  0  0  0  0  0  0  0  0  0  0
   -3.1633   -0.5640   32.6438 C   0  0  0  0  0  0  0  0  0  0  0  0
   -3.4636   -1.8971   33.0238 C   0  0  0  0  0  0  0  0  0  0  0  0
   -4.6467   -1.8424   33.7212 C   0  0  0  0  0  0  0  0  0  0  0  0
   -4.9929   -0.5229   33.7765 N   0  0  0  0  0  0  0  0  0  0  0  0
   -6.0923    0.0566   34.5408 C   0  0  0  0  0  0  0  0  0  0  0  0
   -6.0111   -0.1960   36.0592 C   0  0  0  0  0  0  0  0  0  0  0  0
   -7.4502   -0.4016   36.5166 C   0  0  0  0  0  0  0  0  0  0  0  0
   -8.0735   -1.1405   35.3517 C   0  0  0  0  0  0  0  0  0  0  0  0
   -7.4784   -0.4510   34.1213 C   0  0  0  0  0  0  0  0  0  0  0  0
   -4.1435    0.2720   33.0629 N   0  0  0  0  0  0  0  0  0  0  0  0
   -0.7393    1.4570   29.2738 H   0  0  0  0  0  0  0  0  0  0  0  0
   -0.0886    1.6918   30.9132 H   0  0  0  0  0  0  0  0  0  0  0  0
    1.0047    1.3816   29.5804 H   0  0  0  0  0  0  0  0  0  0  0  0
    0.6634   -0.6474   30.9975 H   0  0  0  0  0  0  0  0  0  0  0  0
    0.7774   -0.3689   28.2169 H   0  0  0  0  0  0  0  0  0  0  0  0
   -0.5878   -1.3858   28.2560 H   0  0  0  0  0  0  0  0  0  0  0  0
    0.4673   -2.7073   30.6713 H   0  0  0  0  0  0  0  0  0  0  0  0
    0.7589   -4.0123   29.6317 H   0  0  0  0  0  0  0  0  0  0  0  0
   -0.6409   -3.1139   29.2307 H   0  0  0  0  0  0  0  0  0  0  0  0
    5.5984   -1.7218   28.3109 H   0  0  0  0  0  0  0  0  0  0  0  0
    6.0252   -1.1237   25.6422 H   0  0  0  0  0  0  0  0  0  0  0  0
    3.6765   -0.7421   24.6963 H   0  0  0  0  0  0  0  0  0  0  0  0
   -2.1449   -0.5343   30.0313 H   0  0  0  0  0  0  0  0  0  0  0  0
   -1.9941    1.0129   31.7819 H   0  0  0  0  0  0  0  0  0  0  0  0
   -1.0666   -0.1550   32.7435 H   0  0  0  0  0  0  0  0  0  0  0  0
   -2.8416   -2.7627   32.8547 H   0  0  0  0  0  0  0  0  0  0  0  0
   -5.2160   -2.6065   34.2275 H   0  0  0  0  0  0  0  0  0  0  0  0
   -6.0496    1.1389   34.3581 H   0  0  0  0  0  0  0  0  0  0  0  0
   -5.5429    0.6461   36.5799 H   0  0  0  0  0  0  0  0  0  0  0  0
   -5.4148   -1.0850   36.2921 H   0  0  0  0  0  0  0  0  0  0  0  0
   -7.9428    0.5669   36.6621 H   0  0  0  0  0  0  0  0  0  0  0  0
   -7.5120   -0.9639   37.4525 H   0  0  0  0  0  0  0  0  0  0  0  0
   -9.1637   -1.1103   35.3881 H   0  0  0  0  0  0  0  0  0  0  0  0
   -7.7716   -2.1893   35.3670 H   0  0  0  0  0  0  0  0  0  0  0  0
   -8.0891    0.4203   33.8584 H   0  0  0  0  0  0  0  0  0  0  0  0
   -7.4615   -1.1143   33.2521 H   0  0  0  0  0  0  0  0  0  0  0  0
  1  2  1  0
  2  3  1  0
  3  4  1  0
  4  5  1  0
  4  6  1  0
  6  7  2  0
  6  8  1  0
  8  9  1  0
  9 10  2  0
 10 11  1  0
 11 12  1  0
  2 13  1  0
 13 14  1  0
 14 15  1  0
 15 16  1  0
 16 17  2  0
 17 18  1  0
 18 19  1  0
 19 20  1  0
 20 21  1  0
 21 22  1  0
 22 23  1  0
 18 24  1  0
 12  8  2  0
 24 15  2  0
 23 19  1  0
  1 25  1  0
  1 26  1  0
  1 27  1  0
  2 28  1  0
  3 29  1  0
  3 30  1  0
  5 31  1  0
  5 32  1  0
  5 33  1  0
  9 34  1  0
 10 35  1  0
 11 36  1  0
 13 37  1  0
 14 38  1  0
 14 39  1  0
 16 40  1  0
 17 41  1  0
 19 42  1  0
 20 43  1  0
 20 44  1  0
 21 45  1  0
 21 46  1  0
 22 47  1  0
 22 48  1  0
 23 49  1  0
 23 50  1  0
M  END
>  <Energy>  (397) 
170.42145250444437

>  <compound_id>  (397) 
18709

>  <target_id>  (397) 
1

>  <reference_id>  (397) 
7

>  <inspiration_ids>  (397) 
[122, 7]

>  <energy_score>  (397) 
38.24891808472415

>  <distance_score>  (397) 
11.340110818005462

>  <path>  (397) 
/opt/xchem-fragalysis-2/maxwin/BulkDock/SCRATCH/511023/C18709-P7/C18709-P7.minimised.mol

>  <scratch_subdir>  (397) 
/opt/xchem-fragalysis-2/maxwin/BulkDock/SCRATCH/511023/C18709-P7

>  <fragmenstein_runtime>  (397) 
26.72702980041504

>  <fragmenstein_outcome>  (397) 
too moved

>  <fragmenstein_mode>  (397) 
expansion

>  <fragmenstein_error>  (397) 


$$$$
C18710-P122
     RDKit          3D

 49 51  0  0  0  0  0  0  0  0999 V2000
    3.5675   -2.7155   24.6314 C   0  0  0  0  0  0  0  0  0  0  0  0
    4.6646   -1.7692   24.5021 C   0  0  0  0  0  0  0  0  0  0  0  0
    5.0719   -1.4027   26.0417 C   0  0  0  0  0  0  0  0  0  0  0  0
    4.1506   -0.3361   26.8002 C   0  0  0  0  0  0  0  0  0  0  0  0
    2.8398   -0.6816   27.4612 N   0  0  0  0  0  0  0  0  0  0  0  0
    2.5146   -0.9644   28.8700 C   0  0  0  0  0  0  0  0  0  0  0  0
    3.2281   -1.0691   29.8286 O   0  0  0  0  0  0  0  0  0  0  0  0
    0.9690   -1.0358   29.1834 C   0  0  0  0  0  0  0  0  0  0  0  0
   -0.0860   -0.3529   28.4988 C   0  0  0  0  0  0  0  0  0  0  0  0
   -1.2278   -0.5063   29.2544 C   0  0  0  0  0  0  0  0  0  0  0  0
   -0.8821   -1.2695   30.3347 N   0  0  0  0  0  0  0  0  0  0  0  0
   -1.8318   -1.7782   31.3228 C   0  0  0  0  0  0  0  0  0  0  0  0
   -1.2986   -2.6354   32.4810 C   0  0  0  0  0  0  0  0  0  0  0  0
   -2.3693   -2.5491   33.5951 C   0  0  0  0  0  0  0  0  0  0  0  0
   -3.3974   -1.5245   33.1253 C   0  0  0  0  0  0  0  0  0  0  0  0
   -2.6365   -0.7097   32.0842 C   0  0  0  0  0  0  0  0  0  0  0  0
    0.4362   -1.6145   30.3093 N   0  0  0  0  0  0  0  0  0  0  0  0
    5.4748   -1.8260   22.9502 N   0  0  0  0  0  0  0  0  0  0  0  0
    5.4017   -0.8140   21.7017 C   0  0  0  0  0  0  0  0  0  0  0  0
    4.7079    0.1641   21.5282 O   0  0  0  0  0  0  0  0  0  0  0  0
    6.3414   -0.9442   20.6105 C   0  0  0  0  0  0  0  0  0  0  0  0
    5.9132   -0.6861   19.2290 C   0  0  0  0  0  0  0  0  0  0  0  0
    6.3824    0.5672   18.9056 C   0  0  0  0  0  0  0  0  0  0  0  0
    6.9826    0.9601   20.0643 N   0  0  0  0  0  0  0  0  0  0  0  0
    7.4018   -0.1334   20.7800 N   0  0  0  0  0  0  0  0  0  0  0  0
    3.9635   -3.6521   24.9519 H   0  0  0  0  0  0  0  0  0  0  0  0
    3.0408   -2.7953   23.6863 H   0  0  0  0  0  0  0  0  0  0  0  0
    2.9495   -2.4070   25.4706 H   0  0  0  0  0  0  0  0  0  0  0  0
    4.1587   -0.8331   24.3862 H   0  0  0  0  0  0  0  0  0  0  0  0
    6.1267   -1.1380   26.1226 H   0  0  0  0  0  0  0  0  0  0  0  0
    4.9205   -2.2527   26.7082 H   0  0  0  0  0  0  0  0  0  0  0  0
    3.9315    0.4998   26.1306 H   0  0  0  0  0  0  0  0  0  0  0  0
    4.7641    0.0616   27.6178 H   0  0  0  0  0  0  0  0  0  0  0  0
    1.9963   -0.7478   26.9068 H   0  0  0  0  0  0  0  0  0  0  0  0
    0.0013    0.2399   27.6002 H   0  0  0  0  0  0  0  0  0  0  0  0
   -2.2260   -0.1256   29.1085 H   0  0  0  0  0  0  0  0  0  0  0  0
   -2.5286   -2.3972   30.7409 H   0  0  0  0  0  0  0  0  0  0  0  0
   -1.1268   -3.6709   32.1690 H   0  0  0  0  0  0  0  0  0  0  0  0
   -0.3473   -2.2447   32.8619 H   0  0  0  0  0  0  0  0  0  0  0  0
   -1.8959   -2.2152   34.5257 H   0  0  0  0  0  0  0  0  0  0  0  0
   -2.8299   -3.5188   33.8017 H   0  0  0  0  0  0  0  0  0  0  0  0
   -4.2492   -2.0322   32.6579 H   0  0  0  0  0  0  0  0  0  0  0  0
   -3.7747   -0.9067   33.9450 H   0  0  0  0  0  0  0  0  0  0  0  0
   -1.9583    0.0008   32.5746 H   0  0  0  0  0  0  0  0  0  0  0  0
   -3.2990   -0.1286   31.4434 H   0  0  0  0  0  0  0  0  0  0  0  0
    6.2232   -2.4863   22.8046 H   0  0  0  0  0  0  0  0  0  0  0  0
    5.1247   -1.1850   18.6839 H   0  0  0  0  0  0  0  0  0  0  0  0
    6.1787    1.2448   18.0902 H   0  0  0  0  0  0  0  0  0  0  0  0
    7.3171    1.8823   20.3268 H   0  0  0  0  0  0  0  0  0  0  0  0
  1  2  1  0
  2  3  1  0
  3  4  1  0
  4  5  1  0
  5  6  1  0
  6  7  2  0
  6  8  1  0
  8  9  1  0
  9 10  2  0
 10 11  1  0
 11 12  1  0
 12 13  1  0
 13 14  1  0
 14 15  1  0
 15 16  1  0
 11 17  1  0
  2 18  1  0
 18 19  1  0
 19 20  2  0
 19 21  1  0
 21 22  1  0
 22 23  2  0
 23 24  1  0
 24 25  1  0
 17  8  2  0
 25 21  2  0
 16 12  1  0
  1 26  1  0
  1 27  1  0
  1 28  1  0
  2 29  1  0
  3 30  1  0
  3 31  1  0
  4 32  1  0
  4 33  1  0
  5 34  1  0
  9 35  1  0
 10 36  1  0
 12 37  1  0
 13 38  1  0
 13 39  1  0
 14 40  1  0
 14 41  1  0
 15 42  1  0
 15 43  1  0
 16 44  1  0
 16 45  1  0
 18 46  1  0
 22 47  1  0
 23 48  1  0
 24 49  1  0
M  END
>  <Energy>  (398) 
232.42635153959301

>  <compound_id>  (398) 
18710

>  <target_id>  (398) 
1

>  <reference_id>  (398) 
122

>  <inspiration_ids>  (398) 
[122, 7]

>  <energy_score>  (398) 
122.16651049137943

>  <distance_score>  (398) 
11.90960186155574

>  <path>  (398) 
/opt/xchem-fragalysis-2/maxwin/BulkDock/SCRATCH/511023/C18710-P122/C18710-P122.minimised.mol

>  <scratch_subdir>  (398) 
/opt/xchem-fragalysis-2/maxwin/BulkDock/SCRATCH/511023/C18710-P122

>  <fragmenstein_runtime>  (398) 
26.51475167274475

>  <fragmenstein_outcome>  (398) 
too moved

>  <fragmenstein_mode>  (398) 
expansion

>  <fragmenstein_error>  (398) 


$$$$
C18710-P7
     RDKit          3D

 49 51  0  0  0  0  0  0  0  0999 V2000
    0.5163    0.1672   31.6889 C   0  0  0  0  0  0  0  0  0  0  0  0
   -0.1657    0.2040   30.3253 C   0  0  0  0  0  0  0  0  0  0  0  0
   -1.5683   -0.4765   30.2649 C   0  0  0  0  0  0  0  0  0  0  0  0
   -1.9758   -1.4940   31.3550 C   0  0  0  0  0  0  0  0  0  0  0  0
   -2.9596   -1.0443   32.3515 N   0  0  0  0  0  0  0  0  0  0  0  0
   -2.8089   -0.7120   33.7371 C   0  0  0  0  0  0  0  0  0  0  0  0
   -1.8298   -0.6388   34.4190 O   0  0  0  0  0  0  0  0  0  0  0  0
   -4.1373   -0.5211   34.4491 C   0  0  0  0  0  0  0  0  0  0  0  0
   -4.2506   -0.2949   35.8554 C   0  0  0  0  0  0  0  0  0  0  0  0
   -5.5876   -0.2165   36.1355 C   0  0  0  0  0  0  0  0  0  0  0  0
   -6.2304   -0.3609   34.9426 N   0  0  0  0  0  0  0  0  0  0  0  0
   -7.6809   -0.3207   34.7555 C   0  0  0  0  0  0  0  0  0  0  0  0
   -8.3892   -1.5312   35.3712 C   0  0  0  0  0  0  0  0  0  0  0  0
   -8.9974   -1.0565   36.6823 C   0  0  0  0  0  0  0  0  0  0  0  0
   -9.4326    0.3602   36.3703 C   0  0  0  0  0  0  0  0  0  0  0  0
   -8.3671    0.9003   35.4103 C   0  0  0  0  0  0  0  0  0  0  0  0
   -5.3744   -0.5771   33.8894 N   0  0  0  0  0  0  0  0  0  0  0  0
    0.7805   -0.1837   29.2613 N   0  0  0  0  0  0  0  0  0  0  0  0
    1.5352   -1.4011   29.0597 C   0  0  0  0  0  0  0  0  0  0  0  0
    1.5225   -2.4349   29.6640 O   0  0  0  0  0  0  0  0  0  0  0  0
    2.5519   -1.2695   27.9105 C   0  0  0  0  0  0  0  0  0  0  0  0
    2.9928   -0.1203   27.1694 C   0  0  0  0  0  0  0  0  0  0  0  0
    3.9114   -0.5715   26.2484 C   0  0  0  0  0  0  0  0  0  0  0  0
    4.0102   -1.9089   26.4578 N   0  0  0  0  0  0  0  0  0  0  0  0
    3.2479   -2.3452   27.4782 N   0  0  0  0  0  0  0  0  0  0  0  0
    0.8416   -0.8425   31.9575 H   0  0  0  0  0  0  0  0  0  0  0  0
   -0.1488    0.5447   32.4712 H   0  0  0  0  0  0  0  0  0  0  0  0
    1.4126    0.7982   31.6844 H   0  0  0  0  0  0  0  0  0  0  0  0
   -0.3496    1.2645   30.1040 H   0  0  0  0  0  0  0  0  0  0  0  0
   -2.3243    0.3200   30.2502 H   0  0  0  0  0  0  0  0  0  0  0  0
   -1.6527   -0.9765   29.2906 H   0  0  0  0  0  0  0  0  0  0  0  0
   -1.1102   -1.8919   31.8898 H   0  0  0  0  0  0  0  0  0  0  0  0
   -2.4552   -2.3477   30.8625 H   0  0  0  0  0  0  0  0  0  0  0  0
   -3.9512   -1.0888   32.1284 H   0  0  0  0  0  0  0  0  0  0  0  0
   -3.4323   -0.2157   36.5598 H   0  0  0  0  0  0  0  0  0  0  0  0
   -6.1103   -0.0554   37.0677 H   0  0  0  0  0  0  0  0  0  0  0  0
   -7.8323   -0.3040   33.6697 H   0  0  0  0  0  0  0  0  0  0  0  0
   -9.1994   -1.8592   34.7168 H   0  0  0  0  0  0  0  0  0  0  0  0
   -7.7312   -2.3831   35.5078 H   0  0  0  0  0  0  0  0  0  0  0  0
   -9.8342   -1.6835   37.0036 H   0  0  0  0  0  0  0  0  0  0  0  0
   -8.2457   -1.0599   37.4788 H   0  0  0  0  0  0  0  0  0  0  0  0
  -10.4133    0.3563   35.8817 H   0  0  0  0  0  0  0  0  0  0  0  0
   -9.5185    0.9739   37.2722 H   0  0  0  0  0  0  0  0  0  0  0  0
   -7.6593    1.5365   35.9531 H   0  0  0  0  0  0  0  0  0  0  0  0
   -8.8335    1.5381   34.6507 H   0  0  0  0  0  0  0  0  0  0  0  0
    0.9869    0.4596   28.5106 H   0  0  0  0  0  0  0  0  0  0  0  0
    2.6745    0.9051   27.2759 H   0  0  0  0  0  0  0  0  0  0  0  0
    4.4662   -0.0839   25.4607 H   0  0  0  0  0  0  0  0  0  0  0  0
    4.6117   -2.5812   25.9835 H   0  0  0  0  0  0  0  0  0  0  0  0
  1  2  1  0
  2  3  1  0
  3  4  1  0
  4  5  1  0
  5  6  1  0
  6  7  2  0
  6  8  1  0
  8  9  1  0
  9 10  2  0
 10 11  1  0
 11 12  1  0
 12 13  1  0
 13 14  1  0
 14 15  1  0
 15 16  1  0
 11 17  1  0
  2 18  1  0
 18 19  1  0
 19 20  2  0
 19 21  1  0
 21 22  1  0
 22 23  2  0
 23 24  1  0
 24 25  1  0
 17  8  2  0
 25 21  2  0
 16 12  1  0
  1 26  1  0
  1 27  1  0
  1 28  1  0
  2 29  1  0
  3 30  1  0
  3 31  1  0
  4 32  1  0
  4 33  1  0
  5 34  1  0
  9 35  1  0
 10 36  1  0
 12 37  1  0
 13 38  1  0
 13 39  1  0
 14 40  1  0
 14 41  1  0
 15 42  1  0
 15 43  1  0
 16 44  1  0
 16 45  1  0
 18 46  1  0
 22 47  1  0
 23 48  1  0
 24 49  1  0
M  END
>  <Energy>  (399) 
86.5024166044591

>  <compound_id>  (399) 
18710

>  <target_id>  (399) 
1

>  <reference_id>  (399) 
7

>  <inspiration_ids>  (399) 
[122, 7]

>  <energy_score>  (399) 
-23.757424443752114

>  <distance_score>  (399) 
10.962530996736723

>  <path>  (399) 
/opt/xchem-fragalysis-2/maxwin/BulkDock/SCRATCH/511023/C18710-P7/C18710-P7.minimised.mol

>  <scratch_subdir>  (399) 
/opt/xchem-fragalysis-2/maxwin/BulkDock/SCRATCH/511023/C18710-P7

>  <fragmenstein_runtime>  (399) 
20.144867658615112

>  <fragmenstein_outcome>  (399) 
too moved

>  <fragmenstein_mode>  (399) 
expansion

>  <fragmenstein_error>  (399) 


$$$$
C18711-P122
     RDKit          3D

 49 51  0  0  0  0  0  0  0  0999 V2000
    0.2220    0.5013   28.1034 C   0  0  0  0  0  0  0  0  0  0  0  0
    1.1428   -0.5069   28.7854 C   0  0  0  0  0  0  0  0  0  0  0  0
    0.4348   -1.8192   29.2154 C   0  0  0  0  0  0  0  0  0  0  0  0
   -1.0805   -1.8010   29.5517 C   0  0  0  0  0  0  0  0  0  0  0  0
   -1.5392   -1.2570   30.8297 N   0  0  0  0  0  0  0  0  0  0  0  0
   -2.6256   -1.6679   31.7040 C   0  0  0  0  0  0  0  0  0  0  0  0
   -3.3675   -2.6037   31.6366 O   0  0  0  0  0  0  0  0  0  0  0  0
   -2.8414   -0.7251   32.8257 C   0  0  0  0  0  0  0  0  0  0  0  0
   -1.9242    0.1017   33.4612 C   0  0  0  0  0  0  0  0  0  0  0  0
   -2.6132    0.7602   34.4866 C   0  0  0  0  0  0  0  0  0  0  0  0
   -3.8918    0.4198   34.5222 N   0  0  0  0  0  0  0  0  0  0  0  0
   -4.0215   -0.5221   33.5498 N   0  0  0  0  0  0  0  0  0  0  0  0
   -5.3737   -1.0490   33.3570 C   0  0  0  0  0  0  0  0  0  0  0  0
   -6.3934    0.0884   33.1960 C   0  0  0  0  0  0  0  0  0  0  0  0
   -7.1281    0.1971   34.5281 C   0  0  0  0  0  0  0  0  0  0  0  0
   -7.2576   -1.2458   34.9335 C   0  0  0  0  0  0  0  0  0  0  0  0
   -5.8824   -1.8217   34.5794 C   0  0  0  0  0  0  0  0  0  0  0  0
    2.3315   -0.7234   27.9257 N   0  0  0  0  0  0  0  0  0  0  0  0
    3.7031   -0.2724   28.0690 C   0  0  0  0  0  0  0  0  0  0  0  0
    4.2383    0.3220   28.9599 O   0  0  0  0  0  0  0  0  0  0  0  0
    4.5766   -0.5204   26.8265 C   0  0  0  0  0  0  0  0  0  0  0  0
    4.2564   -1.0368   25.5381 C   0  0  0  0  0  0  0  0  0  0  0  0
    5.3881   -0.8976   24.7574 C   0  0  0  0  0  0  0  0  0  0  0  0
    6.3274   -0.3671   25.5718 N   0  0  0  0  0  0  0  0  0  0  0  0
    5.8963   -0.1942   26.8278 N   0  0  0  0  0  0  0  0  0  0  0  0
   -0.5633    0.8459   28.7836 H   0  0  0  0  0  0  0  0  0  0  0  0
    0.7826    1.3841   27.7762 H   0  0  0  0  0  0  0  0  0  0  0  0
   -0.2544    0.0675   27.2200 H   0  0  0  0  0  0  0  0  0  0  0  0
    1.5209   -0.0266   29.6968 H   0  0  0  0  0  0  0  0  0  0  0  0
    0.5509   -2.5312   28.3860 H   0  0  0  0  0  0  0  0  0  0  0  0
    0.9869   -2.2565   30.0569 H   0  0  0  0  0  0  0  0  0  0  0  0
   -1.4351   -2.8387   29.5356 H   0  0  0  0  0  0  0  0  0  0  0  0
   -1.6456   -1.2864   28.7682 H   0  0  0  0  0  0  0  0  0  0  0  0
   -1.1789   -0.3677   31.1466 H   0  0  0  0  0  0  0  0  0  0  0  0
   -0.8700    0.1923   33.2398 H   0  0  0  0  0  0  0  0  0  0  0  0
   -2.2341    1.4744   35.2067 H   0  0  0  0  0  0  0  0  0  0  0  0
   -5.3760   -1.6759   32.4637 H   0  0  0  0  0  0  0  0  0  0  0  0
   -7.1050   -0.1756   32.4062 H   0  0  0  0  0  0  0  0  0  0  0  0
   -5.9176    1.0346   32.9382 H   0  0  0  0  0  0  0  0  0  0  0  0
   -6.5243    0.7487   35.2580 H   0  0  0  0  0  0  0  0  0  0  0  0
   -8.0896    0.7067   34.4535 H   0  0  0  0  0  0  0  0  0  0  0  0
   -8.0422   -1.7345   34.3496 H   0  0  0  0  0  0  0  0  0  0  0  0
   -7.5147   -1.3316   35.9912 H   0  0  0  0  0  0  0  0  0  0  0  0
   -5.2016   -1.7058   35.4315 H   0  0  0  0  0  0  0  0  0  0  0  0
   -5.9308   -2.8860   34.3566 H   0  0  0  0  0  0  0  0  0  0  0  0
    2.2093   -1.1236   27.0006 H   0  0  0  0  0  0  0  0  0  0  0  0
    3.3096   -1.4160   25.1826 H   0  0  0  0  0  0  0  0  0  0  0  0
    5.5618   -1.1036   23.7102 H   0  0  0  0  0  0  0  0  0  0  0  0
    7.2834   -0.1050   25.3541 H   0  0  0  0  0  0  0  0  0  0  0  0
  1  2  1  0
  2  3  1  0
  3  4  1  0
  4  5  1  0
  5  6  1  0
  6  7  2  0
  6  8  1  0
  8  9  2  0
  9 10  1  0
 10 11  2  0
 11 12  1  0
 12 13  1  0
 13 14  1  0
 14 15  1  0
 15 16  1  0
 16 17  1  0
  2 18  1  0
 18 19  1  0
 19 20  2  0
 19 21  1  0
 21 22  1  0
 22 23  2  0
 23 24  1  0
 24 25  1  0
 12  8  1  0
 17 13  1  0
 25 21  2  0
  1 26  1  0
  1 27  1  0
  1 28  1  0
  2 29  1  0
  3 30  1  0
  3 31  1  0
  4 32  1  0
  4 33  1  0
  5 34  1  0
  9 35  1  0
 10 36  1  0
 13 37  1  0
 14 38  1  0
 14 39  1  0
 15 40  1  0
 15 41  1  0
 16 42  1  0
 16 43  1  0
 17 44  1  0
 17 45  1  0
 18 46  1  0
 22 47  1  0
 23 48  1  0
 24 49  1  0
M  END
>  <Energy>  (400) 
36.092364590210167

>  <compound_id>  (400) 
18711

>  <target_id>  (400) 
1

>  <reference_id>  (400) 
122

>  <inspiration_ids>  (400) 
[122, 7]

>  <energy_score>  (400) 
-10.696751631211441

>  <distance_score>  (400) 
11.137542768866576

>  <path>  (400) 
/opt/xchem-fragalysis-2/maxwin/BulkDock/SCRATCH/511023/C18711-P122/C18711-P122.minimised.mol

>  <scratch_subdir>  (400) 
/opt/xchem-fragalysis-2/maxwin/BulkDock/SCRATCH/511023/C18711-P122

>  <fragmenstein_runtime>  (400) 
26.219080448150635

>  <fragmenstein_outcome>  (400) 
too moved

>  <fragmenstein_mode>  (400) 
expansion

>  <fragmenstein_error>  (400) 


$$$$
C18711-P7
     RDKit          3D

 49 51  0  0  0  0  0  0  0  0999 V2000
    2.0634   -0.7532   32.3005 C   0  0  0  0  0  0  0  0  0  0  0  0
    1.1046   -1.2906   31.2323 C   0  0  0  0  0  0  0  0  0  0  0  0
   -0.3455   -0.7136   31.3921 C   0  0  0  0  0  0  0  0  0  0  0  0
   -0.8886   -0.8309   32.8503 C   0  0  0  0  0  0  0  0  0  0  0  0
   -2.3349   -0.7316   33.0557 N   0  0  0  0  0  0  0  0  0  0  0  0
   -3.1120   -0.4753   34.2615 C   0  0  0  0  0  0  0  0  0  0  0  0
   -2.7595   -0.2030   35.3705 O   0  0  0  0  0  0  0  0  0  0  0  0
   -4.5711   -0.6580   34.0504 C   0  0  0  0  0  0  0  0  0  0  0  0
   -5.2262   -1.3544   33.0445 C   0  0  0  0  0  0  0  0  0  0  0  0
   -6.5915   -1.1575   33.2465 C   0  0  0  0  0  0  0  0  0  0  0  0
   -6.8437   -0.5106   34.3699 N   0  0  0  0  0  0  0  0  0  0  0  0
   -5.6197   -0.2405   34.8847 N   0  0  0  0  0  0  0  0  0  0  0  0
   -5.5903    0.4412   36.1775 C   0  0  0  0  0  0  0  0  0  0  0  0
   -6.7350    1.4532   36.3891 C   0  0  0  0  0  0  0  0  0  0  0  0
   -7.8944    0.6810   37.0435 C   0  0  0  0  0  0  0  0  0  0  0  0
   -7.3179   -0.6566   37.4956 C   0  0  0  0  0  0  0  0  0  0  0  0
   -5.8032   -0.5063   37.3609 C   0  0  0  0  0  0  0  0  0  0  0  0
    1.7179   -1.1919   29.8888 N   0  0  0  0  0  0  0  0  0  0  0  0
    2.7158   -0.2847   29.3659 C   0  0  0  0  0  0  0  0  0  0  0  0
    3.2420    0.6687   29.8647 O   0  0  0  0  0  0  0  0  0  0  0  0
    3.1998   -0.7068   27.9963 C   0  0  0  0  0  0  0  0  0  0  0  0
    4.2502   -0.1070   27.2226 C   0  0  0  0  0  0  0  0  0  0  0  0
    4.2787   -0.7823   26.0257 C   0  0  0  0  0  0  0  0  0  0  0  0
    3.2749   -1.7041   26.1036 N   0  0  0  0  0  0  0  0  0  0  0  0
    2.6987   -1.7662   27.3304 N   0  0  0  0  0  0  0  0  0  0  0  0
    3.0760   -1.1451   32.1524 H   0  0  0  0  0  0  0  0  0  0  0  0
    1.7519   -1.0485   33.3070 H   0  0  0  0  0  0  0  0  0  0  0  0
    2.1162    0.3401   32.2701 H   0  0  0  0  0  0  0  0  0  0  0  0
    1.0238   -2.3733   31.3962 H   0  0  0  0  0  0  0  0  0  0  0  0
   -0.3675    0.3377   31.0812 H   0  0  0  0  0  0  0  0  0  0  0  0
   -1.0125   -1.2528   30.7081 H   0  0  0  0  0  0  0  0  0  0  0  0
   -0.4248   -0.0737   33.4916 H   0  0  0  0  0  0  0  0  0  0  0  0
   -0.6141   -1.8101   33.2596 H   0  0  0  0  0  0  0  0  0  0  0  0
   -2.9580   -1.0127   32.3158 H   0  0  0  0  0  0  0  0  0  0  0  0
   -4.7807   -1.9147   32.2371 H   0  0  0  0  0  0  0  0  0  0  0  0
   -7.4107   -1.4835   32.6311 H   0  0  0  0  0  0  0  0  0  0  0  0
   -4.6334    0.9645   36.2436 H   0  0  0  0  0  0  0  0  0  0  0  0
   -6.3993    2.2307   37.0874 H   0  0  0  0  0  0  0  0  0  0  0  0
   -7.0475    1.9600   35.4710 H   0  0  0  0  0  0  0  0  0  0  0  0
   -8.2949    1.2468   37.8917 H   0  0  0  0  0  0  0  0  0  0  0  0
   -8.7176    0.5283   36.3373 H   0  0  0  0  0  0  0  0  0  0  0  0
   -7.6869   -1.4524   36.8416 H   0  0  0  0  0  0  0  0  0  0  0  0
   -7.6129   -0.9092   38.5186 H   0  0  0  0  0  0  0  0  0  0  0  0
   -5.4120   -0.0372   38.2730 H   0  0  0  0  0  0  0  0  0  0  0  0
   -5.2839   -1.4575   37.2399 H   0  0  0  0  0  0  0  0  0  0  0  0
    1.4405   -1.8419   29.1512 H   0  0  0  0  0  0  0  0  0  0  0  0
    4.8495    0.7454   27.5100 H   0  0  0  0  0  0  0  0  0  0  0  0
    4.8328   -0.6325   25.1096 H   0  0  0  0  0  0  0  0  0  0  0  0
    2.8840   -2.2870   25.3601 H   0  0  0  0  0  0  0  0  0  0  0  0
  1  2  1  0
  2  3  1  0
  3  4  1  0
  4  5  1  0
  5  6  1  0
  6  7  2  0
  6  8  1  0
  8  9  2  0
  9 10  1  0
 10 11  2  0
 11 12  1  0
 12 13  1  0
 13 14  1  0
 14 15  1  0
 15 16  1  0
 16 17  1  0
  2 18  1  0
 18 19  1  0
 19 20  2  0
 19 21  1  0
 21 22  1  0
 22 23  2  0
 23 24  1  0
 24 25  1  0
 12  8  1  0
 17 13  1  0
 25 21  2  0
  1 26  1  0
  1 27  1  0
  1 28  1  0
  2 29  1  0
  3 30  1  0
  3 31  1  0
  4 32  1  0
  4 33  1  0
  5 34  1  0
  9 35  1  0
 10 36  1  0
 13 37  1  0
 14 38  1  0
 14 39  1  0
 15 40  1  0
 15 41  1  0
 16 42  1  0
 16 43  1  0
 17 44  1  0
 17 45  1  0
 18 46  1  0
 22 47  1  0
 23 48  1  0
 24 49  1  0
M  END
>  <Energy>  (401) 
20.740178091663122

>  <compound_id>  (401) 
18711

>  <target_id>  (401) 
1

>  <reference_id>  (401) 
7

>  <inspiration_ids>  (401) 
[122, 7]

>  <energy_score>  (401) 
-26.04893812975797

>  <distance_score>  (401) 
11.129331591819302

>  <path>  (401) 
/opt/xchem-fragalysis-2/maxwin/BulkDock/SCRATCH/511023/C18711-P7/C18711-P7.minimised.mol

>  <scratch_subdir>  (401) 
/opt/xchem-fragalysis-2/maxwin/BulkDock/SCRATCH/511023/C18711-P7

>  <fragmenstein_runtime>  (401) 
28.110774755477905

>  <fragmenstein_outcome>  (401) 
too moved

>  <fragmenstein_mode>  (401) 
expansion

>  <fragmenstein_error>  (401) 


$$$$
C18712-P122
     RDKit          3D

 50 52  0  0  0  0  0  0  0  0999 V2000
   -0.4241   -2.6052   30.1043 C   0  0  0  0  0  0  0  0  0  0  0  0
   -0.0693   -1.2221   30.6490 C   0  0  0  0  0  0  0  0  0  0  0  0
   -1.3519   -0.5107   31.2461 C   0  0  0  0  0  0  0  0  0  0  0  0
   -2.0064   -1.0562   32.4799 N   0  0  0  0  0  0  0  0  0  0  0  0
   -3.4571   -0.7052   32.4856 C   0  0  0  0  0  0  0  0  0  0  0  0
   -4.1978   -0.7173   33.8237 C   0  0  0  0  0  0  0  0  0  0  0  0
   -3.6917   -0.7162   35.1428 C   0  0  0  0  0  0  0  0  0  0  0  0
   -4.7893   -0.6218   35.9706 C   0  0  0  0  0  0  0  0  0  0  0  0
   -5.8860   -0.5628   35.1613 N   0  0  0  0  0  0  0  0  0  0  0  0
   -7.2710   -0.3151   35.5429 C   0  0  0  0  0  0  0  0  0  0  0  0
   -8.2368   -1.3874   35.0652 C   0  0  0  0  0  0  0  0  0  0  0  0
   -9.5354   -1.0824   35.8037 C   0  0  0  0  0  0  0  0  0  0  0  0
   -9.0922   -0.5929   37.1766 C   0  0  0  0  0  0  0  0  0  0  0  0
   -7.6019   -0.2548   37.0462 C   0  0  0  0  0  0  0  0  0  0  0  0
   -5.5487   -0.6533   33.8456 N   0  0  0  0  0  0  0  0  0  0  0  0
    0.5327   -0.3108   29.5255 C   0  0  0  0  0  0  0  0  0  0  0  0
    1.5816   -0.7838   28.6200 N   0  0  0  0  0  0  0  0  0  0  0  0
    2.9489   -1.1588   28.8713 C   0  0  0  0  0  0  0  0  0  0  0  0
    3.5556   -1.2564   29.8988 O   0  0  0  0  0  0  0  0  0  0  0  0
    3.6937   -1.3500   27.5601 C   0  0  0  0  0  0  0  0  0  0  0  0
    5.0291   -1.8188   27.3403 C   0  0  0  0  0  0  0  0  0  0  0  0
    5.2398   -1.7722   25.9791 C   0  0  0  0  0  0  0  0  0  0  0  0
    4.0800   -1.2911   25.4451 N   0  0  0  0  0  0  0  0  0  0  0  0
    3.1512   -0.9878   26.3801 N   0  0  0  0  0  0  0  0  0  0  0  0
   -0.8409   -3.2444   30.8888 H   0  0  0  0  0  0  0  0  0  0  0  0
   -1.1611   -2.5358   29.2969 H   0  0  0  0  0  0  0  0  0  0  0  0
    0.4634   -3.1099   29.7089 H   0  0  0  0  0  0  0  0  0  0  0  0
    0.6792   -1.3370   31.4422 H   0  0  0  0  0  0  0  0  0  0  0  0
   -1.0902    0.5308   31.4710 H   0  0  0  0  0  0  0  0  0  0  0  0
   -2.0913   -0.4807   30.4351 H   0  0  0  0  0  0  0  0  0  0  0  0
   -1.9037   -2.0680   32.4956 H   0  0  0  0  0  0  0  0  0  0  0  0
   -3.9601   -1.4218   31.8290 H   0  0  0  0  0  0  0  0  0  0  0  0
   -3.5860    0.3036   32.0779 H   0  0  0  0  0  0  0  0  0  0  0  0
   -2.6527   -0.7372   35.4450 H   0  0  0  0  0  0  0  0  0  0  0  0
   -4.8537   -0.5517   37.0471 H   0  0  0  0  0  0  0  0  0  0  0  0
   -7.5349    0.6482   35.0850 H   0  0  0  0  0  0  0  0  0  0  0  0
   -8.3180   -1.4176   33.9823 H   0  0  0  0  0  0  0  0  0  0  0  0
   -7.8890   -2.3750   35.3407 H   0  0  0  0  0  0  0  0  0  0  0  0
  -10.1991   -1.9495   35.8625 H   0  0  0  0  0  0  0  0  0  0  0  0
  -10.0850   -0.2785   35.3035 H   0  0  0  0  0  0  0  0  0  0  0  0
   -9.2411   -1.3640   37.9400 H   0  0  0  0  0  0  0  0  0  0  0  0
   -9.6730    0.2842   37.4813 H   0  0  0  0  0  0  0  0  0  0  0  0
   -7.0261   -0.9890   37.6204 H   0  0  0  0  0  0  0  0  0  0  0  0
   -7.3739    0.7306   37.4664 H   0  0  0  0  0  0  0  0  0  0  0  0
   -0.2804    0.0169   28.8660 H   0  0  0  0  0  0  0  0  0  0  0  0
    0.9367    0.5900   30.0031 H   0  0  0  0  0  0  0  0  0  0  0  0
    1.4326   -0.7280   27.6099 H   0  0  0  0  0  0  0  0  0  0  0  0
    5.7260   -2.1457   28.0991 H   0  0  0  0  0  0  0  0  0  0  0  0
    6.0837   -2.0310   25.3579 H   0  0  0  0  0  0  0  0  0  0  0  0
    3.8486   -1.1131   24.4653 H   0  0  0  0  0  0  0  0  0  0  0  0
  1  2  1  0
  2  3  1  0
  3  4  1  0
  4  5  1  0
  5  6  1  0
  6  7  1  0
  7  8  2  0
  8  9  1  0
  9 10  1  0
 10 11  1  0
 11 12  1  0
 12 13  1  0
 13 14  1  0
  9 15  1  0
  2 16  1  0
 16 17  1  0
 17 18  1  0
 18 19  2  0
 18 20  1  0
 20 21  1  0
 21 22  2  0
 22 23  1  0
 23 24  1  0
 15  6  2  0
 24 20  2  0
 14 10  1  0
  1 25  1  0
  1 26  1  0
  1 27  1  0
  2 28  1  0
  3 29  1  0
  3 30  1  0
  4 31  1  0
  5 32  1  0
  5 33  1  0
  7 34  1  0
  8 35  1  0
 10 36  1  0
 11 37  1  0
 11 38  1  0
 12 39  1  0
 12 40  1  0
 13 41  1  0
 13 42  1  0
 14 43  1  0
 14 44  1  0
 16 45  1  0
 16 46  1  0
 17 47  1  0
 21 48  1  0
 22 49  1  0
 23 50  1  0
M  END
>  <Energy>  (402) 
73.513658254676542

>  <compound_id>  (402) 
18712

>  <target_id>  (402) 
1

>  <reference_id>  (402) 
122

>  <inspiration_ids>  (402) 
[122, 7]

>  <energy_score>  (402) 
-28.633513175799976

>  <distance_score>  (402) 
10.583638031330445

>  <path>  (402) 
/opt/xchem-fragalysis-2/maxwin/BulkDock/SCRATCH/511023/C18712-P122/C18712-P122.minimised.mol

>  <scratch_subdir>  (402) 
/opt/xchem-fragalysis-2/maxwin/BulkDock/SCRATCH/511023/C18712-P122

>  <fragmenstein_runtime>  (402) 
24.616089582443237

>  <fragmenstein_outcome>  (402) 
too moved

>  <fragmenstein_mode>  (402) 
expansion

>  <fragmenstein_error>  (402) 


$$$$
C18712-P7
     RDKit          3D

 50 52  0  0  0  0  0  0  0  0999 V2000
   -1.2337   -1.9398   30.3055 C   0  0  0  0  0  0  0  0  0  0  0  0
   -0.9679   -0.4605   30.5812 C   0  0  0  0  0  0  0  0  0  0  0  0
   -1.5459   -0.0367   32.0021 C   0  0  0  0  0  0  0  0  0  0  0  0
   -3.0293   -0.0625   32.2369 N   0  0  0  0  0  0  0  0  0  0  0  0
   -3.3336    0.0915   33.6955 C   0  0  0  0  0  0  0  0  0  0  0  0
   -4.8230    0.2404   34.0557 C   0  0  0  0  0  0  0  0  0  0  0  0
   -5.6633    1.3658   33.8403 C   0  0  0  0  0  0  0  0  0  0  0  0
   -6.8457    1.1000   34.4876 C   0  0  0  0  0  0  0  0  0  0  0  0
   -6.6496   -0.0714   35.1509 N   0  0  0  0  0  0  0  0  0  0  0  0
   -7.5194   -0.6637   36.1512 C   0  0  0  0  0  0  0  0  0  0  0  0
   -8.3469    0.2834   37.0309 C   0  0  0  0  0  0  0  0  0  0  0  0
   -9.4307   -0.6349   37.5924 C   0  0  0  0  0  0  0  0  0  0  0  0
   -9.8337   -1.4702   36.3880 C   0  0  0  0  0  0  0  0  0  0  0  0
   -8.5558   -1.6146   35.5568 C   0  0  0  0  0  0  0  0  0  0  0  0
   -5.4647   -0.6666   34.8271 N   0  0  0  0  0  0  0  0  0  0  0  0
    0.5744   -0.1612   30.5264 C   0  0  0  0  0  0  0  0  0  0  0  0
    1.3956   -0.5569   29.3697 N   0  0  0  0  0  0  0  0  0  0  0  0
    2.6463   -1.2863   29.2990 C   0  0  0  0  0  0  0  0  0  0  0  0
    3.2871   -1.8208   30.1586 O   0  0  0  0  0  0  0  0  0  0  0  0
    3.2857   -1.2761   27.9164 C   0  0  0  0  0  0  0  0  0  0  0  0
    4.5444   -1.8831   27.5673 C   0  0  0  0  0  0  0  0  0  0  0  0
    4.7415   -1.6486   26.2292 C   0  0  0  0  0  0  0  0  0  0  0  0
    3.6451   -0.9487   25.8242 N   0  0  0  0  0  0  0  0  0  0  0  0
    2.7877   -0.6359   26.8384 N   0  0  0  0  0  0  0  0  0  0  0  0
   -2.3019   -2.1674   30.3507 H   0  0  0  0  0  0  0  0  0  0  0  0
   -0.7236   -2.5757   31.0369 H   0  0  0  0  0  0  0  0  0  0  0  0
   -0.8805   -2.2209   29.3079 H   0  0  0  0  0  0  0  0  0  0  0  0
   -1.4649    0.1371   29.8071 H   0  0  0  0  0  0  0  0  0  0  0  0
   -1.0663   -0.6828   32.7493 H   0  0  0  0  0  0  0  0  0  0  0  0
   -1.2112    0.9892   32.2002 H   0  0  0  0  0  0  0  0  0  0  0  0
   -3.4020   -0.9634   31.9407 H   0  0  0  0  0  0  0  0  0  0  0  0
   -2.9279   -0.7717   34.2380 H   0  0  0  0  0  0  0  0  0  0  0  0
   -2.8251    0.9886   34.0711 H   0  0  0  0  0  0  0  0  0  0  0  0
   -5.4338    2.2859   33.3291 H   0  0  0  0  0  0  0  0  0  0  0  0
   -7.7486    1.6854   34.5847 H   0  0  0  0  0  0  0  0  0  0  0  0
   -6.8590   -1.2200   36.8278 H   0  0  0  0  0  0  0  0  0  0  0  0
   -8.8152    1.0870   36.4525 H   0  0  0  0  0  0  0  0  0  0  0  0
   -7.7451    0.7426   37.8213 H   0  0  0  0  0  0  0  0  0  0  0  0
  -10.2719   -0.0772   38.0135 H   0  0  0  0  0  0  0  0  0  0  0  0
   -9.0141   -1.2763   38.3779 H   0  0  0  0  0  0  0  0  0  0  0  0
  -10.5976   -0.9362   35.8138 H   0  0  0  0  0  0  0  0  0  0  0  0
  -10.2611   -2.4350   36.6748 H   0  0  0  0  0  0  0  0  0  0  0  0
   -8.1640   -2.6259   35.5981 H   0  0  0  0  0  0  0  0  0  0  0  0
   -8.7324   -1.4284   34.4984 H   0  0  0  0  0  0  0  0  0  0  0  0
    1.0501   -0.6180   31.4030 H   0  0  0  0  0  0  0  0  0  0  0  0
    0.7172    0.9215   30.6243 H   0  0  0  0  0  0  0  0  0  0  0  0
    1.1862   -0.1679   28.4509 H   0  0  0  0  0  0  0  0  0  0  0  0
    5.1931   -2.4316   28.2362 H   0  0  0  0  0  0  0  0  0  0  0  0
    5.5220   -1.9278   25.5379 H   0  0  0  0  0  0  0  0  0  0  0  0
    3.4247   -0.6444   24.8748 H   0  0  0  0  0  0  0  0  0  0  0  0
  1  2  1  0
  2  3  1  0
  3  4  1  0
  4  5  1  0
  5  6  1  0
  6  7  1  0
  7  8  2  0
  8  9  1  0
  9 10  1  0
 10 11  1  0
 11 12  1  0
 12 13  1  0
 13 14  1  0
  9 15  1  0
  2 16  1  0
 16 17  1  0
 17 18  1  0
 18 19  2  0
 18 20  1  0
 20 21  1  0
 21 22  2  0
 22 23  1  0
 23 24  1  0
 15  6  2  0
 24 20  2  0
 14 10  1  0
  1 25  1  0
  1 26  1  0
  1 27  1  0
  2 28  1  0
  3 29  1  0
  3 30  1  0
  4 31  1  0
  5 32  1  0
  5 33  1  0
  7 34  1  0
  8 35  1  0
 10 36  1  0
 11 37  1  0
 11 38  1  0
 12 39  1  0
 12 40  1  0
 13 41  1  0
 13 42  1  0
 14 43  1  0
 14 44  1  0
 16 45  1  0
 16 46  1  0
 17 47  1  0
 21 48  1  0
 22 49  1  0
 23 50  1  0
M  END
>  <Energy>  (403) 
72.617717073107315

>  <compound_id>  (403) 
18712

>  <target_id>  (403) 
1

>  <reference_id>  (403) 
7

>  <inspiration_ids>  (403) 
[122, 7]

>  <energy_score>  (403) 
-29.529454357368536

>  <distance_score>  (403) 
10.476676491952492

>  <path>  (403) 
/opt/xchem-fragalysis-2/maxwin/BulkDock/SCRATCH/511023/C18712-P7/C18712-P7.minimised.mol

>  <scratch_subdir>  (403) 
/opt/xchem-fragalysis-2/maxwin/BulkDock/SCRATCH/511023/C18712-P7

>  <fragmenstein_runtime>  (403) 
23.08403205871582

>  <fragmenstein_outcome>  (403) 
too moved

>  <fragmenstein_mode>  (403) 
expansion

>  <fragmenstein_error>  (403) 


$$$$
C18713-P122
     RDKit          3D

 48 50  0  0  0  0  0  0  0  0999 V2000
    3.4778   -1.4453   18.4012 O   0  0  0  0  0  0  0  0  0  0  0  0
    2.2977   -1.1691   18.6200 C   0  0  0  0  0  0  0  0  0  0  0  0
    1.2562   -1.6979   19.8426 N   0  0  0  0  0  0  0  0  0  0  0  0
    1.5072   -3.1426   21.4006 C   0  0  0  0  0  0  0  0  0  0  0  0
    2.7224   -2.8870   23.0907 C   0  0  0  0  0  0  0  0  0  0  0  0
    4.1540   -2.1769   23.1603 O   0  0  0  0  0  0  0  0  0  0  0  0
    3.1324   -2.8616   25.0050 C   0  0  0  0  0  0  0  0  0  0  0  0
    2.6101   -2.1339   26.4015 N   0  0  0  0  0  0  0  0  0  0  0  0
    1.9645   -2.9119   27.5316 C   0  0  0  0  0  0  0  0  0  0  0  0
    0.8181   -2.1630   28.3964 C   0  0  0  0  0  0  0  0  0  0  0  0
    0.4006   -0.8046   28.3253 C   0  0  0  0  0  0  0  0  0  0  0  0
   -0.6022   -0.6432   29.2562 C   0  0  0  0  0  0  0  0  0  0  0  0
   -0.7403   -1.8444   29.8948 N   0  0  0  0  0  0  0  0  0  0  0  0
   -1.7528   -2.1550   30.9044 C   0  0  0  0  0  0  0  0  0  0  0  0
   -2.3284   -0.9511   31.6754 C   0  0  0  0  0  0  0  0  0  0  0  0
   -3.1529   -1.6086   32.7807 C   0  0  0  0  0  0  0  0  0  0  0  0
   -2.2226   -2.7061   33.2739 C   0  0  0  0  0  0  0  0  0  0  0  0
   -1.3410   -3.0837   32.0636 C   0  0  0  0  0  0  0  0  0  0  0  0
    0.0859   -2.8002   29.3608 N   0  0  0  0  0  0  0  0  0  0  0  0
    1.7258   -0.2319   17.6532 C   0  0  0  0  0  0  0  0  0  0  0  0
    2.4729    0.8590   17.1130 C   0  0  0  0  0  0  0  0  0  0  0  0
    1.7853    1.2485   15.9968 C   0  0  0  0  0  0  0  0  0  0  0  0
    0.7076    0.4176   15.9264 N   0  0  0  0  0  0  0  0  0  0  0  0
    0.6069   -0.4509   16.9475 N   0  0  0  0  0  0  0  0  0  0  0  0
    0.3350   -1.3400   19.6785 H   0  0  0  0  0  0  0  0  0  0  0  0
    0.6022   -2.8924   21.9888 H   0  0  0  0  0  0  0  0  0  0  0  0
    1.1875   -4.1639   21.1093 H   0  0  0  0  0  0  0  0  0  0  0  0
    2.1488   -2.0709   23.3398 H   0  0  0  0  0  0  0  0  0  0  0  0
    4.0023   -1.2165   23.2523 H   0  0  0  0  0  0  0  0  0  0  0  0
    3.7951   -3.6733   25.1870 H   0  0  0  0  0  0  0  0  0  0  0  0
    3.9078   -2.0800   25.0280 H   0  0  0  0  0  0  0  0  0  0  0  0
    1.8696   -1.5582   26.0321 H   0  0  0  0  0  0  0  0  0  0  0  0
    1.5303   -3.8537   27.2003 H   0  0  0  0  0  0  0  0  0  0  0  0
    2.7581   -3.1479   28.2492 H   0  0  0  0  0  0  0  0  0  0  0  0
    0.7928   -0.0439   27.6660 H   0  0  0  0  0  0  0  0  0  0  0  0
   -1.1962    0.2231   29.5067 H   0  0  0  0  0  0  0  0  0  0  0  0
   -2.5628   -2.6298   30.3424 H   0  0  0  0  0  0  0  0  0  0  0  0
   -1.5216   -0.3476   32.1119 H   0  0  0  0  0  0  0  0  0  0  0  0
   -2.9329   -0.2859   31.0573 H   0  0  0  0  0  0  0  0  0  0  0  0
   -3.4254   -0.9055   33.5725 H   0  0  0  0  0  0  0  0  0  0  0  0
   -4.0713   -2.0403   32.3668 H   0  0  0  0  0  0  0  0  0  0  0  0
   -1.5801   -2.3170   34.0734 H   0  0  0  0  0  0  0  0  0  0  0  0
   -2.7638   -3.5580   33.6924 H   0  0  0  0  0  0  0  0  0  0  0  0
   -0.2849   -2.9417   32.3243 H   0  0  0  0  0  0  0  0  0  0  0  0
   -1.4580   -4.1363   31.7878 H   0  0  0  0  0  0  0  0  0  0  0  0
    3.4230    1.2273   17.4715 H   0  0  0  0  0  0  0  0  0  0  0  0
    1.9729    2.0002   15.2444 H   0  0  0  0  0  0  0  0  0  0  0  0
   -0.0103    0.3931   15.2104 H   0  0  0  0  0  0  0  0  0  0  0  0
  1  2  2  0
  2  3  1  0
  3  4  1  0
  4  5  1  0
  5  6  1  0
  5  7  1  0
  7  8  1  0
  8  9  1  0
  9 10  1  0
 10 11  1  0
 11 12  2  0
 12 13  1  0
 13 14  1  0
 14 15  1  0
 15 16  1  0
 16 17  1  0
 17 18  1  0
 13 19  1  0
  2 20  1  0
 20 21  1  0
 21 22  2  0
 22 23  1  0
 23 24  1  0
 19 10  2  0
 24 20  2  0
 18 14  1  0
  3 25  1  0
  4 26  1  0
  4 27  1  0
  5 28  1  0
  6 29  1  0
  7 30  1  0
  7 31  1  0
  8 32  1  0
  9 33  1  0
  9 34  1  0
 11 35  1  0
 12 36  1  0
 14 37  1  0
 15 38  1  0
 15 39  1  0
 16 40  1  0
 16 41  1  0
 17 42  1  0
 17 43  1  0
 18 44  1  0
 18 45  1  0
 21 46  1  0
 22 47  1  0
 23 48  1  0
M  END
>  <Energy>  (404) 
548.19011694937376

>  <compound_id>  (404) 
18713

>  <target_id>  (404) 
1

>  <reference_id>  (404) 
122

>  <inspiration_ids>  (404) 
[122, 7]

>  <energy_score>  (404) 
409.1253294742897

>  <distance_score>  (404) 
13.129535149317148

>  <path>  (404) 
/opt/xchem-fragalysis-2/maxwin/BulkDock/SCRATCH/511023/C18713-P122/C18713-P122.minimised.mol

>  <scratch_subdir>  (404) 
/opt/xchem-fragalysis-2/maxwin/BulkDock/SCRATCH/511023/C18713-P122

>  <fragmenstein_runtime>  (404) 
10.855079412460327

>  <fragmenstein_outcome>  (404) 
too moved

>  <fragmenstein_mode>  (404) 
expansion

>  <fragmenstein_error>  (404) 


$$$$
C18713-P7
     RDKit          3D

 48 50  0  0  0  0  0  0  0  0999 V2000
    3.6486   -0.8777   30.0714 O   0  0  0  0  0  0  0  0  0  0  0  0
    2.9522   -0.8209   29.0988 C   0  0  0  0  0  0  0  0  0  0  0  0
    1.5180   -0.8914   28.9640 N   0  0  0  0  0  0  0  0  0  0  0  0
    0.4612   -1.1529   29.9652 C   0  0  0  0  0  0  0  0  0  0  0  0
   -0.5848   -0.0177   30.1587 C   0  0  0  0  0  0  0  0  0  0  0  0
   -1.0576    0.3653   28.8499 O   0  0  0  0  0  0  0  0  0  0  0  0
   -1.8687   -0.3843   31.0094 C   0  0  0  0  0  0  0  0  0  0  0  0
   -1.7345   -0.5883   32.4585 N   0  0  0  0  0  0  0  0  0  0  0  0
   -2.6425    0.1928   33.3424 C   0  0  0  0  0  0  0  0  0  0  0  0
   -4.0708   -0.3220   33.5527 C   0  0  0  0  0  0  0  0  0  0  0  0
   -4.7764   -1.3264   32.8563 C   0  0  0  0  0  0  0  0  0  0  0  0
   -6.0658   -1.2758   33.3298 C   0  0  0  0  0  0  0  0  0  0  0  0
   -6.0496   -0.4404   34.4054 N   0  0  0  0  0  0  0  0  0  0  0  0
   -7.0659   -0.3018   35.4376 C   0  0  0  0  0  0  0  0  0  0  0  0
   -8.1723   -1.3597   35.4386 C   0  0  0  0  0  0  0  0  0  0  0  0
   -9.2179   -0.8178   36.4020 C   0  0  0  0  0  0  0  0  0  0  0  0
   -9.1238    0.6997   36.2594 C   0  0  0  0  0  0  0  0  0  0  0  0
   -7.8961    0.9795   35.3793 C   0  0  0  0  0  0  0  0  0  0  0  0
   -4.8663    0.2183   34.5052 N   0  0  0  0  0  0  0  0  0  0  0  0
    3.6525   -0.7158   27.7557 C   0  0  0  0  0  0  0  0  0  0  0  0
    5.0558   -0.5328   27.5094 C   0  0  0  0  0  0  0  0  0  0  0  0
    5.2127   -0.5063   26.1424 C   0  0  0  0  0  0  0  0  0  0  0  0
    3.9643   -0.7089   25.6302 N   0  0  0  0  0  0  0  0  0  0  0  0
    3.0065   -0.8131   26.5795 N   0  0  0  0  0  0  0  0  0  0  0  0
    1.2768   -0.8914   27.9706 H   0  0  0  0  0  0  0  0  0  0  0  0
    0.9448   -1.3843   30.9195 H   0  0  0  0  0  0  0  0  0  0  0  0
   -0.0478   -2.0558   29.6100 H   0  0  0  0  0  0  0  0  0  0  0  0
   -0.0888    0.8589   30.5918 H   0  0  0  0  0  0  0  0  0  0  0  0
   -1.3949    1.2756   28.9202 H   0  0  0  0  0  0  0  0  0  0  0  0
   -2.6173    0.3941   30.8149 H   0  0  0  0  0  0  0  0  0  0  0  0
   -2.3013   -1.2952   30.5778 H   0  0  0  0  0  0  0  0  0  0  0  0
   -1.7739   -1.5729   32.7111 H   0  0  0  0  0  0  0  0  0  0  0  0
   -2.6803    1.2348   33.0052 H   0  0  0  0  0  0  0  0  0  0  0  0
   -2.1658    0.2112   34.3307 H   0  0  0  0  0  0  0  0  0  0  0  0
   -4.4144   -1.9423   32.0471 H   0  0  0  0  0  0  0  0  0  0  0  0
   -6.9556   -1.7891   33.0090 H   0  0  0  0  0  0  0  0  0  0  0  0
   -6.5307   -0.3511   36.3961 H   0  0  0  0  0  0  0  0  0  0  0  0
   -7.8191   -2.3417   35.7287 H   0  0  0  0  0  0  0  0  0  0  0  0
   -8.6121   -1.4758   34.4462 H   0  0  0  0  0  0  0  0  0  0  0  0
  -10.2198   -1.1959   36.1773 H   0  0  0  0  0  0  0  0  0  0  0  0
   -8.9727   -1.1098   37.4297 H   0  0  0  0  0  0  0  0  0  0  0  0
  -10.0276    1.1203   35.8066 H   0  0  0  0  0  0  0  0  0  0  0  0
   -9.0064    1.1635   37.2451 H   0  0  0  0  0  0  0  0  0  0  0  0
   -7.3354    1.8514   35.7315 H   0  0  0  0  0  0  0  0  0  0  0  0
   -8.2128    1.1913   34.3502 H   0  0  0  0  0  0  0  0  0  0  0  0
    5.8244   -0.4123   28.2605 H   0  0  0  0  0  0  0  0  0  0  0  0
    6.0689   -0.3577   25.5008 H   0  0  0  0  0  0  0  0  0  0  0  0
    3.6816   -0.7462   24.6481 H   0  0  0  0  0  0  0  0  0  0  0  0
  1  2  2  0
  2  3  1  0
  3  4  1  0
  4  5  1  0
  5  6  1  0
  5  7  1  0
  7  8  1  0
  8  9  1  0
  9 10  1  0
 10 11  1  0
 11 12  2  0
 12 13  1  0
 13 14  1  0
 14 15  1  0
 15 16  1  0
 16 17  1  0
 17 18  1  0
 13 19  1  0
  2 20  1  0
 20 21  1  0
 21 22  2  0
 22 23  1  0
 23 24  1  0
 19 10  2  0
 24 20  2  0
 18 14  1  0
  3 25  1  0
  4 26  1  0
  4 27  1  0
  5 28  1  0
  6 29  1  0
  7 30  1  0
  7 31  1  0
  8 32  1  0
  9 33  1  0
  9 34  1  0
 11 35  1  0
 12 36  1  0
 14 37  1  0
 15 38  1  0
 15 39  1  0
 16 40  1  0
 16 41  1  0
 17 42  1  0
 17 43  1  0
 18 44  1  0
 18 45  1  0
 21 46  1  0
 22 47  1  0
 23 48  1  0
M  END
>  <Energy>  (405) 
109.42495302602799

>  <compound_id>  (405) 
18713

>  <target_id>  (405) 
1

>  <reference_id>  (405) 
7

>  <inspiration_ids>  (405) 
[122, 7]

>  <energy_score>  (405) 
-29.63983444904858

>  <distance_score>  (405) 
10.814303186370626

>  <path>  (405) 
/opt/xchem-fragalysis-2/maxwin/BulkDock/SCRATCH/511023/C18713-P7/C18713-P7.minimised.mol

>  <scratch_subdir>  (405) 
/opt/xchem-fragalysis-2/maxwin/BulkDock/SCRATCH/511023/C18713-P7

>  <fragmenstein_runtime>  (405) 
20.85477066040039

>  <fragmenstein_outcome>  (405) 
too moved

>  <fragmenstein_mode>  (405) 
expansion

>  <fragmenstein_error>  (405) 


$$$$
C18714-P122
     RDKit          3D

 47 49  0  0  0  0  0  0  0  0999 V2000
    1.6216    1.1991   30.8991 C   0  0  0  0  0  0  0  0  0  0  0  0
    1.2249   -0.2071   30.4452 C   0  0  0  0  0  0  0  0  0  0  0  0
   -0.3431   -0.3618   30.3955 C   0  0  0  0  0  0  0  0  0  0  0  0
   -1.0507   -0.1634   31.7172 N   0  0  0  0  0  0  0  0  0  0  0  0
   -2.5216   -0.3135   31.5709 C   0  0  0  0  0  0  0  0  0  0  0  0
   -3.3686   -0.2244   32.8614 C   0  0  0  0  0  0  0  0  0  0  0  0
   -3.0871   -0.7316   34.1565 C   0  0  0  0  0  0  0  0  0  0  0  0
   -4.2483   -0.5909   34.8854 C   0  0  0  0  0  0  0  0  0  0  0  0
   -5.1646   -0.0374   34.0406 N   0  0  0  0  0  0  0  0  0  0  0  0
   -6.5879    0.1515   34.2870 C   0  0  0  0  0  0  0  0  0  0  0  0
   -6.9273    1.0323   35.4936 C   0  0  0  0  0  0  0  0  0  0  0  0
   -8.3589    0.6270   35.8370 C   0  0  0  0  0  0  0  0  0  0  0  0
   -8.3463   -0.8827   35.6708 C   0  0  0  0  0  0  0  0  0  0  0  0
   -7.3532   -1.1587   34.5374 C   0  0  0  0  0  0  0  0  0  0  0  0
   -4.6297    0.2697   32.8306 N   0  0  0  0  0  0  0  0  0  0  0  0
    1.9821   -0.5321   29.2102 N   0  0  0  0  0  0  0  0  0  0  0  0
    3.2018   -1.2865   29.0173 C   0  0  0  0  0  0  0  0  0  0  0  0
    3.8664   -1.9073   29.7966 O   0  0  0  0  0  0  0  0  0  0  0  0
    3.7550   -1.1873   27.6047 C   0  0  0  0  0  0  0  0  0  0  0  0
    4.9433   -1.8352   27.1155 C   0  0  0  0  0  0  0  0  0  0  0  0
    5.0658   -1.4868   25.7935 C   0  0  0  0  0  0  0  0  0  0  0  0
    3.9954   -0.6831   25.5316 N   0  0  0  0  0  0  0  0  0  0  0  0
    3.2252   -0.4235   26.6264 N   0  0  0  0  0  0  0  0  0  0  0  0
    1.2870    1.9514   30.1763 H   0  0  0  0  0  0  0  0  0  0  0  0
    2.7103    1.2873   30.9859 H   0  0  0  0  0  0  0  0  0  0  0  0
    1.1900    1.4441   31.8744 H   0  0  0  0  0  0  0  0  0  0  0  0
    1.5965   -0.9125   31.1997 H   0  0  0  0  0  0  0  0  0  0  0  0
   -0.7398    0.3584   29.6693 H   0  0  0  0  0  0  0  0  0  0  0  0
   -0.5742   -1.3665   30.0209 H   0  0  0  0  0  0  0  0  0  0  0  0
   -0.7091   -0.8726   32.3647 H   0  0  0  0  0  0  0  0  0  0  0  0
   -2.8770    0.4544   30.8759 H   0  0  0  0  0  0  0  0  0  0  0  0
   -2.7280   -1.2993   31.1377 H   0  0  0  0  0  0  0  0  0  0  0  0
   -2.1672   -1.1852   34.4986 H   0  0  0  0  0  0  0  0  0  0  0  0
   -4.4939   -0.8711   35.9003 H   0  0  0  0  0  0  0  0  0  0  0  0
   -7.0004    0.6263   33.3858 H   0  0  0  0  0  0  0  0  0  0  0  0
   -6.8472    2.0984   35.2589 H   0  0  0  0  0  0  0  0  0  0  0  0
   -6.2676    0.8274   36.3450 H   0  0  0  0  0  0  0  0  0  0  0  0
   -8.6443    0.9320   36.8479 H   0  0  0  0  0  0  0  0  0  0  0  0
   -9.0605    1.0864   35.1319 H   0  0  0  0  0  0  0  0  0  0  0  0
   -7.9865   -1.3345   36.6003 H   0  0  0  0  0  0  0  0  0  0  0  0
   -9.3400   -1.2903   35.4641 H   0  0  0  0  0  0  0  0  0  0  0  0
   -6.6863   -1.9843   34.7908 H   0  0  0  0  0  0  0  0  0  0  0  0
   -7.8663   -1.4664   33.6229 H   0  0  0  0  0  0  0  0  0  0  0  0
    1.7407   -0.0630   28.3375 H   0  0  0  0  0  0  0  0  0  0  0  0
    5.5928   -2.4871   27.6830 H   0  0  0  0  0  0  0  0  0  0  0  0
    5.7727   -1.7508   25.0218 H   0  0  0  0  0  0  0  0  0  0  0  0
    3.7359   -0.2709   24.6307 H   0  0  0  0  0  0  0  0  0  0  0  0
  1  2  1  0
  2  3  1  0
  3  4  1  0
  4  5  1  0
  5  6  1  0
  6  7  1  0
  7  8  2  0
  8  9  1  0
  9 10  1  0
 10 11  1  0
 11 12  1  0
 12 13  1  0
 13 14  1  0
  9 15  1  0
  2 16  1  0
 16 17  1  0
 17 18  2  0
 17 19  1  0
 19 20  1  0
 20 21  2  0
 21 22  1  0
 22 23  1  0
 15  6  2  0
 23 19  2  0
 14 10  1  0
  1 24  1  0
  1 25  1  0
  1 26  1  0
  2 27  1  0
  3 28  1  0
  3 29  1  0
  4 30  1  0
  5 31  1  0
  5 32  1  0
  7 33  1  0
  8 34  1  0
 10 35  1  0
 11 36  1  0
 11 37  1  0
 12 38  1  0
 12 39  1  0
 13 40  1  0
 13 41  1  0
 14 42  1  0
 14 43  1  0
 16 44  1  0
 20 45  1  0
 21 46  1  0
 22 47  1  0
M  END
>  <Energy>  (406) 
84.660119974348945

>  <compound_id>  (406) 
18714

>  <target_id>  (406) 
1

>  <reference_id>  (406) 
122

>  <inspiration_ids>  (406) 
[122, 7]

>  <energy_score>  (406) 
-22.27935972708923

>  <distance_score>  (406) 
11.076414988351393

>  <path>  (406) 
/opt/xchem-fragalysis-2/maxwin/BulkDock/SCRATCH/511023/C18714-P122/C18714-P122.minimised.mol

>  <scratch_subdir>  (406) 
/opt/xchem-fragalysis-2/maxwin/BulkDock/SCRATCH/511023/C18714-P122

>  <fragmenstein_runtime>  (406) 
24.29437780380249

>  <fragmenstein_outcome>  (406) 
too moved

>  <fragmenstein_mode>  (406) 
expansion

>  <fragmenstein_error>  (406) 


$$$$
C18714-P7
     RDKit          3D

 47 49  0  0  0  0  0  0  0  0999 V2000
    0.2992   -3.4555   29.6419 C   0  0  0  0  0  0  0  0  0  0  0  0
    0.1506   -2.0369   29.0826 C   0  0  0  0  0  0  0  0  0  0  0  0
   -0.3244   -1.0270   30.1995 C   0  0  0  0  0  0  0  0  0  0  0  0
   -1.6107   -1.4346   30.8541 N   0  0  0  0  0  0  0  0  0  0  0  0
   -2.1707   -0.4293   31.7982 C   0  0  0  0  0  0  0  0  0  0  0  0
   -3.2684   -1.0401   32.6920 C   0  0  0  0  0  0  0  0  0  0  0  0
   -3.2154   -2.3339   33.2675 C   0  0  0  0  0  0  0  0  0  0  0  0
   -4.3587   -2.4688   34.0050 C   0  0  0  0  0  0  0  0  0  0  0  0
   -5.0139   -1.2712   33.9229 N   0  0  0  0  0  0  0  0  0  0  0  0
   -6.1848   -0.9737   34.7189 C   0  0  0  0  0  0  0  0  0  0  0  0
   -5.8808   -0.3174   36.0654 C   0  0  0  0  0  0  0  0  0  0  0  0
   -7.2602    0.0742   36.6005 C   0  0  0  0  0  0  0  0  0  0  0  0
   -8.1774    0.1346   35.3786 C   0  0  0  0  0  0  0  0  0  0  0  0
   -7.2707   -0.0703   34.1586 C   0  0  0  0  0  0  0  0  0  0  0  0
   -4.3819   -0.3795   33.1045 N   0  0  0  0  0  0  0  0  0  0  0  0
    1.3623   -1.6900   28.3107 N   0  0  0  0  0  0  0  0  0  0  0  0
    2.7561   -1.7080   28.6791 C   0  0  0  0  0  0  0  0  0  0  0  0
    3.2828   -1.9323   29.7307 O   0  0  0  0  0  0  0  0  0  0  0  0
    3.6380   -1.4942   27.4643 C   0  0  0  0  0  0  0  0  0  0  0  0
    5.0462   -1.7286   27.3347 C   0  0  0  0  0  0  0  0  0  0  0  0
    5.3615   -1.4886   26.0158 C   0  0  0  0  0  0  0  0  0  0  0  0
    4.1893   -1.1238   25.4242 N   0  0  0  0  0  0  0  0  0  0  0  0
    3.1470   -1.0767   26.2824 N   0  0  0  0  0  0  0  0  0  0  0  0
   -0.6424   -3.8232   30.0602 H   0  0  0  0  0  0  0  0  0  0  0  0
    1.0580   -3.4928   30.4307 H   0  0  0  0  0  0  0  0  0  0  0  0
    0.6044   -4.1535   28.8541 H   0  0  0  0  0  0  0  0  0  0  0  0
   -0.6462   -2.0654   28.3283 H   0  0  0  0  0  0  0  0  0  0  0  0
    0.4571   -0.9433   30.9634 H   0  0  0  0  0  0  0  0  0  0  0  0
   -0.4499   -0.0398   29.7392 H   0  0  0  0  0  0  0  0  0  0  0  0
   -2.3033   -1.6011   30.1249 H   0  0  0  0  0  0  0  0  0  0  0  0
   -2.5799    0.4158   31.2352 H   0  0  0  0  0  0  0  0  0  0  0  0
   -1.3795   -0.0586   32.4603 H   0  0  0  0  0  0  0  0  0  0  0  0
   -2.4163   -3.0540   33.1564 H   0  0  0  0  0  0  0  0  0  0  0  0
   -4.7198   -3.2837   34.6135 H   0  0  0  0  0  0  0  0  0  0  0  0
   -6.6597   -1.9431   34.9107 H   0  0  0  0  0  0  0  0  0  0  0  0
   -5.3503   -0.9837   36.7527 H   0  0  0  0  0  0  0  0  0  0  0  0
   -5.2607    0.5778   35.9305 H   0  0  0  0  0  0  0  0  0  0  0  0
   -7.2172    1.0354   37.1228 H   0  0  0  0  0  0  0  0  0  0  0  0
   -7.6277   -0.6736   37.3123 H   0  0  0  0  0  0  0  0  0  0  0  0
   -8.9060   -0.6809   35.4506 H   0  0  0  0  0  0  0  0  0  0  0  0
   -8.7294    1.0774   35.3212 H   0  0  0  0  0  0  0  0  0  0  0  0
   -6.8589    0.8890   33.8228 H   0  0  0  0  0  0  0  0  0  0  0  0
   -7.7937   -0.5261   33.3152 H   0  0  0  0  0  0  0  0  0  0  0  0
    1.2869   -1.5409   27.3009 H   0  0  0  0  0  0  0  0  0  0  0  0
    5.7138   -2.0633   28.1165 H   0  0  0  0  0  0  0  0  0  0  0  0
    6.2842   -1.5496   25.4588 H   0  0  0  0  0  0  0  0  0  0  0  0
    4.0140   -0.8714   24.4495 H   0  0  0  0  0  0  0  0  0  0  0  0
  1  2  1  0
  2  3  1  0
  3  4  1  0
  4  5  1  0
  5  6  1  0
  6  7  1  0
  7  8  2  0
  8  9  1  0
  9 10  1  0
 10 11  1  0
 11 12  1  0
 12 13  1  0
 13 14  1  0
  9 15  1  0
  2 16  1  0
 16 17  1  0
 17 18  2  0
 17 19  1  0
 19 20  1  0
 20 21  2  0
 21 22  1  0
 22 23  1  0
 15  6  2  0
 23 19  2  0
 14 10  1  0
  1 24  1  0
  1 25  1  0
  1 26  1  0
  2 27  1  0
  3 28  1  0
  3 29  1  0
  4 30  1  0
  5 31  1  0
  5 32  1  0
  7 33  1  0
  8 34  1  0
 10 35  1  0
 11 36  1  0
 11 37  1  0
 12 38  1  0
 12 39  1  0
 13 40  1  0
 13 41  1  0
 14 42  1  0
 14 43  1  0
 16 44  1  0
 20 45  1  0
 21 46  1  0
 22 47  1  0
M  END
>  <Energy>  (407) 
82.392520341990291

>  <compound_id>  (407) 
18714

>  <target_id>  (407) 
1

>  <reference_id>  (407) 
7

>  <inspiration_ids>  (407) 
[122, 7]

>  <energy_score>  (407) 
-24.546959359448465

>  <distance_score>  (407) 
11.1957801821349

>  <path>  (407) 
/opt/xchem-fragalysis-2/maxwin/BulkDock/SCRATCH/511023/C18714-P7/C18714-P7.minimised.mol

>  <scratch_subdir>  (407) 
/opt/xchem-fragalysis-2/maxwin/BulkDock/SCRATCH/511023/C18714-P7

>  <fragmenstein_runtime>  (407) 
19.2003071308136

>  <fragmenstein_outcome>  (407) 
too moved

>  <fragmenstein_mode>  (407) 
expansion

>  <fragmenstein_error>  (407) 


$$$$
C18715-P122
     RDKit          3D

 49 51  0  0  0  0  0  0  0  0999 V2000
    6.8679   -0.9812   20.6191 C   0  0  0  0  0  0  0  0  0  0  0  0
    6.1068   -2.4582   21.0518 C   0  0  0  0  0  0  0  0  0  0  0  0
    5.2057   -3.8812   19.7760 C   0  0  0  0  0  0  0  0  0  0  0  0
    4.2680   -4.6289   18.0582 N   0  0  0  0  0  0  0  0  0  0  0  0
    3.9898   -5.6081   18.9328 C   0  0  0  0  0  0  0  0  0  0  0  0
    3.2990   -3.6252   17.3411 C   0  0  0  0  0  0  0  0  0  0  0  0
    2.1171   -3.4435   17.4853 O   0  0  0  0  0  0  0  0  0  0  0  0
    3.8055   -2.8041   16.2160 C   0  0  0  0  0  0  0  0  0  0  0  0
    3.4726   -1.4514   15.9384 C   0  0  0  0  0  0  0  0  0  0  0  0
    3.9339   -1.2225   14.6683 C   0  0  0  0  0  0  0  0  0  0  0  0
    4.6071   -2.3434   14.2955 N   0  0  0  0  0  0  0  0  0  0  0  0
    4.4532   -3.3570   15.1597 N   0  0  0  0  0  0  0  0  0  0  0  0
    5.9251   -2.0046   22.7654 N   0  0  0  0  0  0  0  0  0  0  0  0
    5.5814   -0.7018   23.3977 C   0  0  0  0  0  0  0  0  0  0  0  0
    5.4273    0.3879   22.9088 O   0  0  0  0  0  0  0  0  0  0  0  0
    5.2306   -0.7590   25.0039 C   0  0  0  0  0  0  0  0  0  0  0  0
    5.3663    0.3204   25.9480 C   0  0  0  0  0  0  0  0  0  0  0  0
    4.5018    0.0957   27.0083 C   0  0  0  0  0  0  0  0  0  0  0  0
    3.7815   -1.0236   26.6947 N   0  0  0  0  0  0  0  0  0  0  0  0
    2.5666   -1.4976   27.3910 C   0  0  0  0  0  0  0  0  0  0  0  0
    1.5632   -0.4124   27.8447 C   0  0  0  0  0  0  0  0  0  0  0  0
    0.5439   -1.1478   28.7339 C   0  0  0  0  0  0  0  0  0  0  0  0
    1.3209   -2.3067   29.3500 C   0  0  0  0  0  0  0  0  0  0  0  0
    2.7331   -2.2365   28.7344 C   0  0  0  0  0  0  0  0  0  0  0  0
    4.2508   -1.5953   25.5203 N   0  0  0  0  0  0  0  0  0  0  0  0
    6.3010   -0.0668   20.7577 H   0  0  0  0  0  0  0  0  0  0  0  0
    7.6275   -0.7652   21.3678 H   0  0  0  0  0  0  0  0  0  0  0  0
    7.2143   -0.8621   19.5963 H   0  0  0  0  0  0  0  0  0  0  0  0
    5.2529   -1.9630   21.0353 H   0  0  0  0  0  0  0  0  0  0  0  0
    5.2725   -2.9099   19.2888 H   0  0  0  0  0  0  0  0  0  0  0  0
    4.4497   -4.0428   20.5009 H   0  0  0  0  0  0  0  0  0  0  0  0
    3.1708   -5.4860   19.6230 H   0  0  0  0  0  0  0  0  0  0  0  0
    3.2183   -6.0943   18.2840 H   0  0  0  0  0  0  0  0  0  0  0  0
    4.6273   -6.4566   18.6747 H   0  0  0  0  0  0  0  0  0  0  0  0
    2.8669   -0.7967   16.5507 H   0  0  0  0  0  0  0  0  0  0  0  0
    3.8098   -0.3918   13.9947 H   0  0  0  0  0  0  0  0  0  0  0  0
    5.1172   -2.5091   13.4336 H   0  0  0  0  0  0  0  0  0  0  0  0
    6.0592   -2.6837   23.4776 H   0  0  0  0  0  0  0  0  0  0  0  0
    5.9682    1.2051   25.7981 H   0  0  0  0  0  0  0  0  0  0  0  0
    4.2936    0.6864   27.8871 H   0  0  0  0  0  0  0  0  0  0  0  0
    2.0832   -2.1844   26.7011 H   0  0  0  0  0  0  0  0  0  0  0  0
    2.0657    0.3545   28.4473 H   0  0  0  0  0  0  0  0  0  0  0  0
    1.0671    0.1085   27.0287 H   0  0  0  0  0  0  0  0  0  0  0  0
    0.1221   -0.4825   29.4935 H   0  0  0  0  0  0  0  0  0  0  0  0
   -0.2832   -1.5317   28.1267 H   0  0  0  0  0  0  0  0  0  0  0  0
    0.8411   -3.2582   29.0942 H   0  0  0  0  0  0  0  0  0  0  0  0
    1.3654   -2.2378   30.4414 H   0  0  0  0  0  0  0  0  0  0  0  0
    3.1630   -3.2312   28.6103 H   0  0  0  0  0  0  0  0  0  0  0  0
    3.4018   -1.6742   29.3983 H   0  0  0  0  0  0  0  0  0  0  0  0
  1  2  1  0
  2  3  1  0
  3  4  1  0
  4  5  1  0
  4  6  1  0
  6  7  2  0
  6  8  1  0
  8  9  1  0
  9 10  2  0
 10 11  1  0
 11 12  1  0
  2 13  1  0
 13 14  1  0
 14 15  2  0
 14 16  1  0
 16 17  1  0
 17 18  2  0
 18 19  1  0
 19 20  1  0
 20 21  1  0
 21 22  1  0
 22 23  1  0
 23 24  1  0
 19 25  1  0
 12  8  2  0
 25 16  2  0
 24 20  1  0
  1 26  1  0
  1 27  1  0
  1 28  1  0
  2 29  1  0
  3 30  1  0
  3 31  1  0
  5 32  1  0
  5 33  1  0
  5 34  1  0
  9 35  1  0
 10 36  1  0
 11 37  1  0
 13 38  1  0
 17 39  1  0
 18 40  1  0
 20 41  1  0
 21 42  1  0
 21 43  1  0
 22 44  1  0
 22 45  1  0
 23 46  1  0
 23 47  1  0
 24 48  1  0
 24 49  1  0
M  END
>  <Energy>  (408) 
584.52596945965922

>  <compound_id>  (408) 
18715

>  <target_id>  (408) 
1

>  <reference_id>  (408) 
122

>  <inspiration_ids>  (408) 
[122, 7]

>  <energy_score>  (408) 
449.95639872389256

>  <distance_score>  (408) 
16.26163420407583

>  <path>  (408) 
/opt/xchem-fragalysis-2/maxwin/BulkDock/SCRATCH/511023/C18715-P122/C18715-P122.minimised.mol

>  <scratch_subdir>  (408) 
/opt/xchem-fragalysis-2/maxwin/BulkDock/SCRATCH/511023/C18715-P122

>  <fragmenstein_runtime>  (408) 
14.296707391738892

>  <fragmenstein_outcome>  (408) 
too moved

>  <fragmenstein_mode>  (408) 
expansion

>  <fragmenstein_error>  (408) 


$$$$
C18715-P7
     RDKit          3D

 49 51  0  0  0  0  0  0  0  0999 V2000
   -1.3566   -0.1918   28.7011 C   0  0  0  0  0  0  0  0  0  0  0  0
   -1.1362   -1.2610   29.7666 C   0  0  0  0  0  0  0  0  0  0  0  0
    0.4028   -1.7224   29.8626 C   0  0  0  0  0  0  0  0  0  0  0  0
    1.6699   -0.8110   30.0046 N   0  0  0  0  0  0  0  0  0  0  0  0
    1.0347   -0.5004   31.2960 C   0  0  0  0  0  0  0  0  0  0  0  0
    1.8424   -0.0036   28.8225 C   0  0  0  0  0  0  0  0  0  0  0  0
    1.4298    1.0983   28.5628 O   0  0  0  0  0  0  0  0  0  0  0  0
    2.7836   -0.6097   27.7854 C   0  0  0  0  0  0  0  0  0  0  0  0
    3.3822    0.1381   26.7069 C   0  0  0  0  0  0  0  0  0  0  0  0
    4.2139   -0.7233   26.0409 C   0  0  0  0  0  0  0  0  0  0  0  0
    4.0942   -1.9079   26.6932 N   0  0  0  0  0  0  0  0  0  0  0  0
    3.2646   -1.8737   27.7690 N   0  0  0  0  0  0  0  0  0  0  0  0
   -1.9006   -0.8956   30.9964 N   0  0  0  0  0  0  0  0  0  0  0  0
   -2.7569   -1.6991   31.8657 C   0  0  0  0  0  0  0  0  0  0  0  0
   -2.9970   -2.8742   31.8549 O   0  0  0  0  0  0  0  0  0  0  0  0
   -3.5308   -0.8337   32.8815 C   0  0  0  0  0  0  0  0  0  0  0  0
   -3.1332    0.4125   33.4480 C   0  0  0  0  0  0  0  0  0  0  0  0
   -4.1569    0.8144   34.2708 C   0  0  0  0  0  0  0  0  0  0  0  0
   -5.1045   -0.1704   34.2232 N   0  0  0  0  0  0  0  0  0  0  0  0
   -6.3708   -0.0950   34.9413 C   0  0  0  0  0  0  0  0  0  0  0  0
   -6.2144   -0.1264   36.4717 C   0  0  0  0  0  0  0  0  0  0  0  0
   -7.5702   -0.5852   37.0315 C   0  0  0  0  0  0  0  0  0  0  0  0
   -8.4149   -0.9646   35.8227 C   0  0  0  0  0  0  0  0  0  0  0  0
   -7.4041   -1.1848   34.7034 C   0  0  0  0  0  0  0  0  0  0  0  0
   -4.7594   -1.1715   33.3725 N   0  0  0  0  0  0  0  0  0  0  0  0
   -2.4174   -0.1180   28.4496 H   0  0  0  0  0  0  0  0  0  0  0  0
   -1.0455    0.7954   29.0550 H   0  0  0  0  0  0  0  0  0  0  0  0
   -0.8218   -0.4294   27.7771 H   0  0  0  0  0  0  0  0  0  0  0  0
   -1.6531   -2.1651   29.4145 H   0  0  0  0  0  0  0  0  0  0  0  0
    0.4919   -2.5910   30.5390 H   0  0  0  0  0  0  0  0  0  0  0  0
    0.5762   -2.1878   28.8782 H   0  0  0  0  0  0  0  0  0  0  0  0
    1.8235    0.0643   31.8169 H   0  0  0  0  0  0  0  0  0  0  0  0
    0.8404   -1.3264   31.9949 H   0  0  0  0  0  0  0  0  0  0  0  0
    0.2509    0.2592   31.2130 H   0  0  0  0  0  0  0  0  0  0  0  0
    3.2079    1.1790   26.4736 H   0  0  0  0  0  0  0  0  0  0  0  0
    4.8425   -0.6106   25.1694 H   0  0  0  0  0  0  0  0  0  0  0  0
    4.5894   -2.7700   26.4769 H   0  0  0  0  0  0  0  0  0  0  0  0
   -1.9995    0.0791   31.2446 H   0  0  0  0  0  0  0  0  0  0  0  0
   -2.2035    0.9422   33.2920 H   0  0  0  0  0  0  0  0  0  0  0  0
   -4.2755    1.6876   34.8986 H   0  0  0  0  0  0  0  0  0  0  0  0
   -6.8127    0.8686   34.6490 H   0  0  0  0  0  0  0  0  0  0  0  0
   -5.4323   -0.8344   36.7730 H   0  0  0  0  0  0  0  0  0  0  0  0
   -5.9315    0.8547   36.8683 H   0  0  0  0  0  0  0  0  0  0  0  0
   -7.4316   -1.4378   37.7038 H   0  0  0  0  0  0  0  0  0  0  0  0
   -8.0519    0.2098   37.6105 H   0  0  0  0  0  0  0  0  0  0  0  0
   -9.0436   -1.8401   36.0010 H   0  0  0  0  0  0  0  0  0  0  0  0
   -9.0722   -0.1233   35.5787 H   0  0  0  0  0  0  0  0  0  0  0  0
   -7.8505   -1.1289   33.7085 H   0  0  0  0  0  0  0  0  0  0  0  0
   -6.9289   -2.1560   34.8237 H   0  0  0  0  0  0  0  0  0  0  0  0
  1  2  1  0
  2  3  1  0
  3  4  1  0
  4  5  1  0
  4  6  1  0
  6  7  2  0
  6  8  1  0
  8  9  1  0
  9 10  2  0
 10 11  1  0
 11 12  1  0
  2 13  1  0
 13 14  1  0
 14 15  2  0
 14 16  1  0
 16 17  1  0
 17 18  2  0
 18 19  1  0
 19 20  1  0
 20 21  1  0
 21 22  1  0
 22 23  1  0
 23 24  1  0
 19 25  1  0
 12  8  2  0
 25 16  2  0
 24 20  1  0
  1 26  1  0
  1 27  1  0
  1 28  1  0
  2 29  1  0
  3 30  1  0
  3 31  1  0
  5 32  1  0
  5 33  1  0
  5 34  1  0
  9 35  1  0
 10 36  1  0
 11 37  1  0
 13 38  1  0
 17 39  1  0
 18 40  1  0
 20 41  1  0
 21 42  1  0
 21 43  1  0
 22 44  1  0
 22 45  1  0
 23 46  1  0
 23 47  1  0
 24 48  1  0
 24 49  1  0
M  END
>  <Energy>  (409) 
186.29561415388713

>  <compound_id>  (409) 
18715

>  <target_id>  (409) 
1

>  <reference_id>  (409) 
7

>  <inspiration_ids>  (409) 
[122, 7]

>  <energy_score>  (409) 
51.7260434181282

>  <distance_score>  (409) 
11.394739497599826

>  <path>  (409) 
/opt/xchem-fragalysis-2/maxwin/BulkDock/SCRATCH/511023/C18715-P7/C18715-P7.minimised.mol

>  <scratch_subdir>  (409) 
/opt/xchem-fragalysis-2/maxwin/BulkDock/SCRATCH/511023/C18715-P7

>  <fragmenstein_runtime>  (409) 
21.993227243423462

>  <fragmenstein_outcome>  (409) 
too moved

>  <fragmenstein_mode>  (409) 
expansion

>  <fragmenstein_error>  (409) 


$$$$
C46488-P122
     RDKit          3D

 46 49  0  0  0  0  0  0  0  0999 V2000
   -0.8073    1.5522   32.0470 O   0  0  0  0  0  0  0  0  0  0  0  0
   -0.9937    0.5606   31.4014 C   0  0  0  0  0  0  0  0  0  0  0  0
   -0.2654    0.0244   30.2516 N   0  0  0  0  0  0  0  0  0  0  0  0
    0.8546    0.5832   29.4759 C   0  0  0  0  0  0  0  0  0  0  0  0
    1.7117   -0.2439   28.5177 C   0  0  0  0  0  0  0  0  0  0  0  0
    1.2999   -1.3713   27.9155 N   0  0  0  0  0  0  0  0  0  0  0  0
    2.2977   -1.6890   27.0458 N   0  0  0  0  0  0  0  0  0  0  0  0
    3.3568   -0.8401   27.1082 C   0  0  0  0  0  0  0  0  0  0  0  0
    3.0162    0.1189   28.0337 C   0  0  0  0  0  0  0  0  0  0  0  0
    3.9093    1.2626   28.3633 C   0  0  0  0  0  0  0  0  0  0  0  0
    5.0006    1.4326   27.2842 C   0  0  0  0  0  0  0  0  0  0  0  0
    5.6252    0.0865   26.8590 C   0  0  0  0  0  0  0  0  0  0  0  0
    4.5813   -0.8897   26.2791 C   0  0  0  0  0  0  0  0  0  0  0  0
   -2.2353   -0.2397   31.8700 C   0  0  0  0  0  0  0  0  0  0  0  0
   -2.6105   -1.5959   31.6510 C   0  0  0  0  0  0  0  0  0  0  0  0
   -3.7725   -1.8053   32.3693 C   0  0  0  0  0  0  0  0  0  0  0  0
   -4.0648   -0.6288   32.9938 N   0  0  0  0  0  0  0  0  0  0  0  0
   -5.0960   -0.3944   33.9974 C   0  0  0  0  0  0  0  0  0  0  0  0
   -5.9041    0.8941   33.8187 C   0  0  0  0  0  0  0  0  0  0  0  0
   -7.1316    0.7195   34.7250 C   0  0  0  0  0  0  0  0  0  0  0  0
   -7.2603   -0.7777   34.9900 C   0  0  0  0  0  0  0  0  0  0  0  0
   -6.2253   -1.4331   34.0811 C   0  0  0  0  0  0  0  0  0  0  0  0
   -3.1728    0.3370   32.6836 N   0  0  0  0  0  0  0  0  0  0  0  0
   -0.7508   -0.7919   29.9038 H   0  0  0  0  0  0  0  0  0  0  0  0
    1.5154    1.0562   30.2127 H   0  0  0  0  0  0  0  0  0  0  0  0
    0.4171    1.4035   28.8930 H   0  0  0  0  0  0  0  0  0  0  0  0
    2.1414   -2.4505   26.3895 H   0  0  0  0  0  0  0  0  0  0  0  0
    3.3344    2.1906   28.4532 H   0  0  0  0  0  0  0  0  0  0  0  0
    4.3844    1.0716   29.3330 H   0  0  0  0  0  0  0  0  0  0  0  0
    5.7812    2.1039   27.6594 H   0  0  0  0  0  0  0  0  0  0  0  0
    4.5636    1.9131   26.3990 H   0  0  0  0  0  0  0  0  0  0  0  0
    6.1032   -0.3711   27.7350 H   0  0  0  0  0  0  0  0  0  0  0  0
    6.4145    0.2579   26.1184 H   0  0  0  0  0  0  0  0  0  0  0  0
    4.3354   -0.5923   25.2531 H   0  0  0  0  0  0  0  0  0  0  0  0
    4.9961   -1.9026   26.2439 H   0  0  0  0  0  0  0  0  0  0  0  0
   -2.0808   -2.3272   31.0569 H   0  0  0  0  0  0  0  0  0  0  0  0
   -4.4043   -2.6675   32.4953 H   0  0  0  0  0  0  0  0  0  0  0  0
   -4.5639   -0.3625   34.9583 H   0  0  0  0  0  0  0  0  0  0  0  0
   -5.3304    1.7878   34.0845 H   0  0  0  0  0  0  0  0  0  0  0  0
   -6.2281    1.0056   32.7761 H   0  0  0  0  0  0  0  0  0  0  0  0
   -8.0241    1.1374   34.2514 H   0  0  0  0  0  0  0  0  0  0  0  0
   -6.9880    1.2553   35.6703 H   0  0  0  0  0  0  0  0  0  0  0  0
   -8.2686   -1.1586   34.8096 H   0  0  0  0  0  0  0  0  0  0  0  0
   -7.0206   -0.9687   36.0413 H   0  0  0  0  0  0  0  0  0  0  0  0
   -6.6602   -1.6137   33.0898 H   0  0  0  0  0  0  0  0  0  0  0  0
   -5.8740   -2.3905   34.4740 H   0  0  0  0  0  0  0  0  0  0  0  0
  1  2  2  0
  2  3  1  0
  3  4  1  0
  4  5  1  0
  5  6  2  0
  6  7  1  0
  7  8  1  0
  8  9  2  0
  9 10  1  0
 10 11  1  0
 11 12  1  0
 12 13  1  0
  2 14  1  0
 14 15  1  0
 15 16  2  0
 16 17  1  0
 17 18  1  0
 18 19  1  0
 19 20  1  0
 20 21  1  0
 21 22  1  0
 17 23  1  0
  9  5  1  0
 23 14  2  0
 13  8  1  0
 22 18  1  0
  3 24  1  0
  4 25  1  0
  4 26  1  0
  7 27  1  0
 10 28  1  0
 10 29  1  0
 11 30  1  0
 11 31  1  0
 12 32  1  0
 12 33  1  0
 13 34  1  0
 13 35  1  0
 15 36  1  0
 16 37  1  0
 18 38  1  0
 19 39  1  0
 19 40  1  0
 20 41  1  0
 20 42  1  0
 21 43  1  0
 21 44  1  0
 22 45  1  0
 22 46  1  0
M  END
>  <Energy>  (410) 
73.954709125495015

>  <compound_id>  (410) 
46488

>  <target_id>  (410) 
1

>  <reference_id>  (410) 
122

>  <inspiration_ids>  (410) 
[122, 7]

>  <energy_score>  (410) 
-21.642087624241213

>  <distance_score>  (410) 
12.7027336496722

>  <path>  (410) 
/opt/xchem-fragalysis-2/maxwin/BulkDock/SCRATCH/511023/C46488-P122/C46488-P122.minimised.mol

>  <scratch_subdir>  (410) 
/opt/xchem-fragalysis-2/maxwin/BulkDock/SCRATCH/511023/C46488-P122

>  <fragmenstein_runtime>  (410) 
13.175220251083374

>  <fragmenstein_outcome>  (410) 
too moved

>  <fragmenstein_mode>  (410) 
expansion

>  <fragmenstein_error>  (410) 


$$$$
C46488-P7
     RDKit          3D

 46 49  0  0  0  0  0  0  0  0999 V2000
   -0.7963    1.2432   31.7128 O   0  0  0  0  0  0  0  0  0  0  0  0
   -1.0448    0.2115   31.1584 C   0  0  0  0  0  0  0  0  0  0  0  0
   -0.4011   -0.4309   30.0142 N   0  0  0  0  0  0  0  0  0  0  0  0
    0.6868    0.0371   29.1295 C   0  0  0  0  0  0  0  0  0  0  0  0
    1.5944   -0.9020   28.3359 C   0  0  0  0  0  0  0  0  0  0  0  0
    2.2655   -0.4044   27.2682 N   0  0  0  0  0  0  0  0  0  0  0  0
    2.9634   -1.4450   26.7636 N   0  0  0  0  0  0  0  0  0  0  0  0
    2.8839   -2.5483   27.5477 C   0  0  0  0  0  0  0  0  0  0  0  0
    1.9962   -2.2432   28.5604 C   0  0  0  0  0  0  0  0  0  0  0  0
    1.6053   -3.2279   29.6027 C   0  0  0  0  0  0  0  0  0  0  0  0
    2.5683   -4.4340   29.6108 C   0  0  0  0  0  0  0  0  0  0  0  0
    2.9076   -4.9277   28.1888 C   0  0  0  0  0  0  0  0  0  0  0  0
    3.5828   -3.8359   27.3341 C   0  0  0  0  0  0  0  0  0  0  0  0
   -2.2832   -0.5094   31.7407 C   0  0  0  0  0  0  0  0  0  0  0  0
   -2.6385   -1.8898   31.7660 C   0  0  0  0  0  0  0  0  0  0  0  0
   -3.7862   -1.9920   32.5326 C   0  0  0  0  0  0  0  0  0  0  0  0
   -4.0956   -0.7241   32.9309 N   0  0  0  0  0  0  0  0  0  0  0  0
   -5.1776   -0.2932   33.8065 C   0  0  0  0  0  0  0  0  0  0  0  0
   -5.0587   -0.7992   35.2444 C   0  0  0  0  0  0  0  0  0  0  0  0
   -6.4290   -0.4810   35.8358 C   0  0  0  0  0  0  0  0  0  0  0  0
   -7.4164   -0.7332   34.7035 C   0  0  0  0  0  0  0  0  0  0  0  0
   -6.5984   -0.7213   33.4048 C   0  0  0  0  0  0  0  0  0  0  0  0
   -3.2309    0.1873   32.4341 N   0  0  0  0  0  0  0  0  0  0  0  0
   -0.9258   -1.2558   29.7604 H   0  0  0  0  0  0  0  0  0  0  0  0
    0.1898    0.7057   28.4150 H   0  0  0  0  0  0  0  0  0  0  0  0
    1.3264    0.6767   29.7503 H   0  0  0  0  0  0  0  0  0  0  0  0
    3.4472   -1.3278   25.8798 H   0  0  0  0  0  0  0  0  0  0  0  0
    0.5878   -3.5795   29.3920 H   0  0  0  0  0  0  0  0  0  0  0  0
    1.5944   -2.7607   30.5934 H   0  0  0  0  0  0  0  0  0  0  0  0
    2.1242   -5.2495   30.1928 H   0  0  0  0  0  0  0  0  0  0  0  0
    3.5002   -4.1506   30.1170 H   0  0  0  0  0  0  0  0  0  0  0  0
    3.5633   -5.8040   28.2440 H   0  0  0  0  0  0  0  0  0  0  0  0
    1.9806   -5.2530   27.6990 H   0  0  0  0  0  0  0  0  0  0  0  0
    3.5700   -4.1270   26.2785 H   0  0  0  0  0  0  0  0  0  0  0  0
    4.6307   -3.7306   27.6386 H   0  0  0  0  0  0  0  0  0  0  0  0
   -2.0889   -2.7047   31.3184 H   0  0  0  0  0  0  0  0  0  0  0  0
   -4.3864   -2.8352   32.8387 H   0  0  0  0  0  0  0  0  0  0  0  0
   -5.1463    0.8059   33.8200 H   0  0  0  0  0  0  0  0  0  0  0  0
   -4.2505   -0.3055   35.7931 H   0  0  0  0  0  0  0  0  0  0  0  0
   -4.8717   -1.8787   35.2701 H   0  0  0  0  0  0  0  0  0  0  0  0
   -6.4651    0.5774   36.1225 H   0  0  0  0  0  0  0  0  0  0  0  0
   -6.6537   -1.0660   36.7308 H   0  0  0  0  0  0  0  0  0  0  0  0
   -7.9238   -1.6938   34.8312 H   0  0  0  0  0  0  0  0  0  0  0  0
   -8.1812    0.0486   34.6963 H   0  0  0  0  0  0  0  0  0  0  0  0
   -7.0258   -0.0309   32.6694 H   0  0  0  0  0  0  0  0  0  0  0  0
   -6.6047   -1.7135   32.9458 H   0  0  0  0  0  0  0  0  0  0  0  0
  1  2  2  0
  2  3  1  0
  3  4  1  0
  4  5  1  0
  5  6  2  0
  6  7  1  0
  7  8  1  0
  8  9  2  0
  9 10  1  0
 10 11  1  0
 11 12  1  0
 12 13  1  0
  2 14  1  0
 14 15  1  0
 15 16  2  0
 16 17  1  0
 17 18  1  0
 18 19  1  0
 19 20  1  0
 20 21  1  0
 21 22  1  0
 17 23  1  0
  9  5  1  0
 23 14  2  0
 13  8  1  0
 22 18  1  0
  3 24  1  0
  4 25  1  0
  4 26  1  0
  7 27  1  0
 10 28  1  0
 10 29  1  0
 11 30  1  0
 11 31  1  0
 12 32  1  0
 12 33  1  0
 13 34  1  0
 13 35  1  0
 15 36  1  0
 16 37  1  0
 18 38  1  0
 19 39  1  0
 19 40  1  0
 20 41  1  0
 20 42  1  0
 21 43  1  0
 21 44  1  0
 22 45  1  0
 22 46  1  0
M  END
>  <Energy>  (411) 
76.420527132067477

>  <compound_id>  (411) 
46488

>  <target_id>  (411) 
1

>  <reference_id>  (411) 
7

>  <inspiration_ids>  (411) 
[122, 7]

>  <energy_score>  (411) 
-19.176269617667884

>  <distance_score>  (411) 
12.656032113422343

>  <path>  (411) 
/opt/xchem-fragalysis-2/maxwin/BulkDock/SCRATCH/511023/C46488-P7/C46488-P7.minimised.mol

>  <scratch_subdir>  (411) 
/opt/xchem-fragalysis-2/maxwin/BulkDock/SCRATCH/511023/C46488-P7

>  <fragmenstein_runtime>  (411) 
14.030650854110718

>  <fragmenstein_outcome>  (411) 
too moved

>  <fragmenstein_mode>  (411) 
expansion

>  <fragmenstein_error>  (411) 


$$$$
C18716-P122
     RDKit          3D

 50 52  0  0  0  0  0  0  0  0999 V2000
    0.2027    1.1519   31.5296 C   0  0  0  0  0  0  0  0  0  0  0  0
    0.1853   -0.3708   31.3528 C   0  0  0  0  0  0  0  0  0  0  0  0
   -1.3045   -0.8974   31.3946 C   0  0  0  0  0  0  0  0  0  0  0  0
   -2.0038   -0.7499   32.7379 N   0  0  0  0  0  0  0  0  0  0  0  0
   -1.5173   -1.8060   33.6399 C   0  0  0  0  0  0  0  0  0  0  0  0
   -3.4964   -0.8435   32.6030 C   0  0  0  0  0  0  0  0  0  0  0  0
   -4.3519   -0.4804   33.8413 C   0  0  0  0  0  0  0  0  0  0  0  0
   -3.9520    0.1924   35.0224 C   0  0  0  0  0  0  0  0  0  0  0  0
   -5.0843    0.3300   35.7880 C   0  0  0  0  0  0  0  0  0  0  0  0
   -6.1046   -0.2393   35.0810 N   0  0  0  0  0  0  0  0  0  0  0  0
   -7.5176   -0.1798   35.4343 C   0  0  0  0  0  0  0  0  0  0  0  0
   -7.8268   -0.0363   36.9384 C   0  0  0  0  0  0  0  0  0  0  0  0
   -9.2415   -0.5953   37.1504 C   0  0  0  0  0  0  0  0  0  0  0  0
   -9.6582   -1.1928   35.8138 C   0  0  0  0  0  0  0  0  0  0  0  0
   -8.3437   -1.4067   35.0736 C   0  0  0  0  0  0  0  0  0  0  0  0
   -5.6889   -0.7114   33.8717 N   0  0  0  0  0  0  0  0  0  0  0  0
    1.0286   -0.7280   30.1841 N   0  0  0  0  0  0  0  0  0  0  0  0
    2.4653   -0.6675   29.9967 C   0  0  0  0  0  0  0  0  0  0  0  0
    3.3408   -0.3889   30.7649 O   0  0  0  0  0  0  0  0  0  0  0  0
    2.9114   -0.9801   28.5821 C   0  0  0  0  0  0  0  0  0  0  0  0
    4.2400   -0.8027   28.0562 C   0  0  0  0  0  0  0  0  0  0  0  0
    4.2002   -1.2165   26.7486 C   0  0  0  0  0  0  0  0  0  0  0  0
    2.9233   -1.6425   26.5421 N   0  0  0  0  0  0  0  0  0  0  0  0
    2.1082   -1.4817   27.6235 N   0  0  0  0  0  0  0  0  0  0  0  0
    1.2293    1.5283   31.5967 H   0  0  0  0  0  0  0  0  0  0  0  0
   -0.2737    1.6485   30.6772 H   0  0  0  0  0  0  0  0  0  0  0  0
   -0.3209    1.4562   32.4412 H   0  0  0  0  0  0  0  0  0  0  0  0
    0.7286   -0.7982   32.2030 H   0  0  0  0  0  0  0  0  0  0  0  0
   -1.3335   -1.9460   31.0712 H   0  0  0  0  0  0  0  0  0  0  0  0
   -1.8653   -0.3292   30.6410 H   0  0  0  0  0  0  0  0  0  0  0  0
   -0.4490   -1.6813   33.8416 H   0  0  0  0  0  0  0  0  0  0  0  0
   -1.6690   -2.8044   33.2163 H   0  0  0  0  0  0  0  0  0  0  0  0
   -2.0083   -1.7705   34.6166 H   0  0  0  0  0  0  0  0  0  0  0  0
   -3.7925   -1.8322   32.2315 H   0  0  0  0  0  0  0  0  0  0  0  0
   -3.7726   -0.0924   31.8590 H   0  0  0  0  0  0  0  0  0  0  0  0
   -2.9575    0.5387   35.2694 H   0  0  0  0  0  0  0  0  0  0  0  0
   -5.2329    0.7975   36.7509 H   0  0  0  0  0  0  0  0  0  0  0  0
   -7.9124    0.6969   34.9032 H   0  0  0  0  0  0  0  0  0  0  0  0
   -7.1214   -0.6154   37.5474 H   0  0  0  0  0  0  0  0  0  0  0  0
   -7.7580    1.0073   37.2641 H   0  0  0  0  0  0  0  0  0  0  0  0
   -9.9392    0.1878   37.4648 H   0  0  0  0  0  0  0  0  0  0  0  0
   -9.2292   -1.3582   37.9363 H   0  0  0  0  0  0  0  0  0  0  0  0
  -10.2380   -2.1122   35.9285 H   0  0  0  0  0  0  0  0  0  0  0  0
  -10.2879   -0.4716   35.2826 H   0  0  0  0  0  0  0  0  0  0  0  0
   -7.8635   -2.3107   35.4203 H   0  0  0  0  0  0  0  0  0  0  0  0
   -8.4413   -1.5458   34.0010 H   0  0  0  0  0  0  0  0  0  0  0  0
    0.5846   -0.9203   29.2863 H   0  0  0  0  0  0  0  0  0  0  0  0
    5.0960   -0.4192   28.5934 H   0  0  0  0  0  0  0  0  0  0  0  0
    4.9440   -1.2713   25.9664 H   0  0  0  0  0  0  0  0  0  0  0  0
    2.5242   -2.0333   25.6866 H   0  0  0  0  0  0  0  0  0  0  0  0
  1  2  1  0
  2  3  1  0
  3  4  1  0
  4  5  1  0
  4  6  1  0
  6  7  1  0
  7  8  1  0
  8  9  2  0
  9 10  1  0
 10 11  1  0
 11 12  1  0
 12 13  1  0
 13 14  1  0
 14 15  1  0
 10 16  1  0
  2 17  1  0
 17 18  1  0
 18 19  2  0
 18 20  1  0
 20 21  1  0
 21 22  2  0
 22 23  1  0
 23 24  1  0
 16  7  2  0
 24 20  2  0
 15 11  1  0
  1 25  1  0
  1 26  1  0
  1 27  1  0
  2 28  1  0
  3 29  1  0
  3 30  1  0
  5 31  1  0
  5 32  1  0
  5 33  1  0
  6 34  1  0
  6 35  1  0
  8 36  1  0
  9 37  1  0
 11 38  1  0
 12 39  1  0
 12 40  1  0
 13 41  1  0
 13 42  1  0
 14 43  1  0
 14 44  1  0
 15 45  1  0
 15 46  1  0
 17 47  1  0
 21 48  1  0
 22 49  1  0
 23 50  1  0
M  END
>  <Energy>  (412) 
95.490691423198911

>  <compound_id>  (412) 
18716

>  <target_id>  (412) 
1

>  <reference_id>  (412) 
122

>  <inspiration_ids>  (412) 
[122, 7]

>  <energy_score>  (412) 
-49.77408476546839

>  <distance_score>  (412) 
11.155183499562346

>  <path>  (412) 
/opt/xchem-fragalysis-2/maxwin/BulkDock/SCRATCH/511023/C18716-P122/C18716-P122.minimised.mol

>  <scratch_subdir>  (412) 
/opt/xchem-fragalysis-2/maxwin/BulkDock/SCRATCH/511023/C18716-P122

>  <fragmenstein_runtime>  (412) 
21.650269031524658

>  <fragmenstein_outcome>  (412) 
too moved

>  <fragmenstein_mode>  (412) 
expansion

>  <fragmenstein_error>  (412) 


$$$$
C18716-P7
     RDKit          3D

 50 52  0  0  0  0  0  0  0  0999 V2000
   -0.9680   -2.5294   29.0430 C   0  0  0  0  0  0  0  0  0  0  0  0
    0.0523   -1.7591   29.8756 C   0  0  0  0  0  0  0  0  0  0  0  0
   -0.6794   -0.6555   30.7487 C   0  0  0  0  0  0  0  0  0  0  0  0
   -1.7618   -1.1524   31.7067 N   0  0  0  0  0  0  0  0  0  0  0  0
   -1.1492   -1.9847   32.7445 C   0  0  0  0  0  0  0  0  0  0  0  0
   -2.5160    0.0045   32.3046 C   0  0  0  0  0  0  0  0  0  0  0  0
   -3.6508   -0.2825   33.3369 C   0  0  0  0  0  0  0  0  0  0  0  0
   -3.4996   -0.7695   34.6669 C   0  0  0  0  0  0  0  0  0  0  0  0
   -4.7424   -0.7208   35.2476 C   0  0  0  0  0  0  0  0  0  0  0  0
   -5.5828   -0.2153   34.3007 N   0  0  0  0  0  0  0  0  0  0  0  0
   -7.0202   -0.0079   34.4614 C   0  0  0  0  0  0  0  0  0  0  0  0
   -7.7688   -1.2787   34.8904 C   0  0  0  0  0  0  0  0  0  0  0  0
   -8.5511   -0.9502   36.1599 C   0  0  0  0  0  0  0  0  0  0  0  0
   -8.7081    0.5565   36.1266 C   0  0  0  0  0  0  0  0  0  0  0  0
   -7.3881    1.0337   35.5311 C   0  0  0  0  0  0  0  0  0  0  0  0
   -4.9348    0.1146   33.1462 N   0  0  0  0  0  0  0  0  0  0  0  0
    1.1631   -1.3419   28.9881 N   0  0  0  0  0  0  0  0  0  0  0  0
    2.5812   -1.2388   29.2321 C   0  0  0  0  0  0  0  0  0  0  0  0
    3.2128   -1.3876   30.2389 O   0  0  0  0  0  0  0  0  0  0  0  0
    3.3569   -0.9970   27.9475 C   0  0  0  0  0  0  0  0  0  0  0  0
    4.7804   -0.9640   27.7775 C   0  0  0  0  0  0  0  0  0  0  0  0
    5.0103   -0.8364   26.4274 C   0  0  0  0  0  0  0  0  0  0  0  0
    3.7775   -0.8214   25.8459 N   0  0  0  0  0  0  0  0  0  0  0  0
    2.7617   -0.8518   26.7476 N   0  0  0  0  0  0  0  0  0  0  0  0
   -1.4589   -1.8699   28.3193 H   0  0  0  0  0  0  0  0  0  0  0  0
   -0.4826   -3.3370   28.4841 H   0  0  0  0  0  0  0  0  0  0  0  0
   -1.7376   -2.9793   29.6749 H   0  0  0  0  0  0  0  0  0  0  0  0
    0.5298   -2.4614   30.5670 H   0  0  0  0  0  0  0  0  0  0  0  0
   -1.1439    0.0529   30.0505 H   0  0  0  0  0  0  0  0  0  0  0  0
    0.0758   -0.0931   31.3129 H   0  0  0  0  0  0  0  0  0  0  0  0
   -1.9125   -2.4657   33.3587 H   0  0  0  0  0  0  0  0  0  0  0  0
   -0.5866   -2.8185   32.3154 H   0  0  0  0  0  0  0  0  0  0  0  0
   -0.4759   -1.4115   33.3912 H   0  0  0  0  0  0  0  0  0  0  0  0
   -1.8108    0.6948   32.7866 H   0  0  0  0  0  0  0  0  0  0  0  0
   -2.9782    0.5412   31.4700 H   0  0  0  0  0  0  0  0  0  0  0  0
   -2.5882   -1.0997   35.1455 H   0  0  0  0  0  0  0  0  0  0  0  0
   -5.0800   -0.9919   36.2373 H   0  0  0  0  0  0  0  0  0  0  0  0
   -7.4009    0.3180   33.4846 H   0  0  0  0  0  0  0  0  0  0  0  0
   -8.4566   -1.5765   34.0984 H   0  0  0  0  0  0  0  0  0  0  0  0
   -7.1055   -2.1237   35.0603 H   0  0  0  0  0  0  0  0  0  0  0  0
   -9.5110   -1.4725   36.2047 H   0  0  0  0  0  0  0  0  0  0  0  0
   -7.9651   -1.2409   37.0397 H   0  0  0  0  0  0  0  0  0  0  0  0
   -9.5426    0.8511   35.4831 H   0  0  0  0  0  0  0  0  0  0  0  0
   -8.8867    0.9765   37.1208 H   0  0  0  0  0  0  0  0  0  0  0  0
   -7.4769    2.0373   35.1021 H   0  0  0  0  0  0  0  0  0  0  0  0
   -6.6288    1.0864   36.3207 H   0  0  0  0  0  0  0  0  0  0  0  0
    0.9891   -1.2313   27.9852 H   0  0  0  0  0  0  0  0  0  0  0  0
    5.5227   -1.0691   28.5558 H   0  0  0  0  0  0  0  0  0  0  0  0
    5.9122   -0.8088   25.8352 H   0  0  0  0  0  0  0  0  0  0  0  0
    3.5524   -0.7626   24.8506 H   0  0  0  0  0  0  0  0  0  0  0  0
  1  2  1  0
  2  3  1  0
  3  4  1  0
  4  5  1  0
  4  6  1  0
  6  7  1  0
  7  8  1  0
  8  9  2  0
  9 10  1  0
 10 11  1  0
 11 12  1  0
 12 13  1  0
 13 14  1  0
 14 15  1  0
 10 16  1  0
  2 17  1  0
 17 18  1  0
 18 19  2  0
 18 20  1  0
 20 21  1  0
 21 22  2  0
 22 23  1  0
 23 24  1  0
 16  7  2  0
 24 20  2  0
 15 11  1  0
  1 25  1  0
  1 26  1  0
  1 27  1  0
  2 28  1  0
  3 29  1  0
  3 30  1  0
  5 31  1  0
  5 32  1  0
  5 33  1  0
  6 34  1  0
  6 35  1  0
  8 36  1  0
  9 37  1  0
 11 38  1  0
 12 39  1  0
 12 40  1  0
 13 41  1  0
 13 42  1  0
 14 43  1  0
 14 44  1  0
 15 45  1  0
 15 46  1  0
 17 47  1  0
 21 48  1  0
 22 49  1  0
 23 50  1  0
M  END
>  <Energy>  (413) 
96.211014527287361

>  <compound_id>  (413) 
18716

>  <target_id>  (413) 
1

>  <reference_id>  (413) 
7

>  <inspiration_ids>  (413) 
[122, 7]

>  <energy_score>  (413) 
-49.05376166137967

>  <distance_score>  (413) 
11.133430141098707

>  <path>  (413) 
/opt/xchem-fragalysis-2/maxwin/BulkDock/SCRATCH/511023/C18716-P7/C18716-P7.minimised.mol

>  <scratch_subdir>  (413) 
/opt/xchem-fragalysis-2/maxwin/BulkDock/SCRATCH/511023/C18716-P7

>  <fragmenstein_runtime>  (413) 
15.207541227340698

>  <fragmenstein_outcome>  (413) 
too moved

>  <fragmenstein_mode>  (413) 
expansion

>  <fragmenstein_error>  (413) 


$$$$
C18717-P122
     RDKit          3D

 47 49  0  0  0  0  0  0  0  0999 V2000
    2.7661    0.3076   30.1672 O   0  0  0  0  0  0  0  0  0  0  0  0
    2.2587   -0.5759   29.5403 C   0  0  0  0  0  0  0  0  0  0  0  0
    1.0982   -1.3793   29.8213 N   0  0  0  0  0  0  0  0  0  0  0  0
    0.1162   -1.3065   30.9138 C   0  0  0  0  0  0  0  0  0  0  0  0
   -1.2458   -0.6843   30.5033 C   0  0  0  0  0  0  0  0  0  0  0  0
   -1.0498    0.7280   29.9375 C   0  0  0  0  0  0  0  0  0  0  0  0
   -2.2855    1.1692   29.3870 O   0  0  0  0  0  0  0  0  0  0  0  0
   -2.3162   -0.6965   31.5392 N   0  0  0  0  0  0  0  0  0  0  0  0
   -3.0225   -1.7805   32.1447 C   0  0  0  0  0  0  0  0  0  0  0  0
   -2.8799   -2.9643   32.0338 O   0  0  0  0  0  0  0  0  0  0  0  0
   -4.2164   -1.3492   32.9910 C   0  0  0  0  0  0  0  0  0  0  0  0
   -5.2925   -2.2382   33.2979 C   0  0  0  0  0  0  0  0  0  0  0  0
   -6.1967   -1.5347   34.0398 C   0  0  0  0  0  0  0  0  0  0  0  0
   -5.6360   -0.3135   34.2431 N   0  0  0  0  0  0  0  0  0  0  0  0
   -6.1419    0.6894   35.1815 C   0  0  0  0  0  0  0  0  0  0  0  0
   -7.5389    1.2179   34.8321 C   0  0  0  0  0  0  0  0  0  0  0  0
   -8.5134    0.4008   35.6829 C   0  0  0  0  0  0  0  0  0  0  0  0
   -7.7719    0.1861   36.9881 C   0  0  0  0  0  0  0  0  0  0  0  0
   -6.2846    0.1539   36.6238 C   0  0  0  0  0  0  0  0  0  0  0  0
   -4.4785   -0.1243   33.5192 N   0  0  0  0  0  0  0  0  0  0  0  0
    2.8801   -0.9539   28.2200 C   0  0  0  0  0  0  0  0  0  0  0  0
    3.9527   -0.2905   27.5390 C   0  0  0  0  0  0  0  0  0  0  0  0
    4.0417   -0.8937   26.3100 C   0  0  0  0  0  0  0  0  0  0  0  0
    3.1048   -1.8793   26.3077 N   0  0  0  0  0  0  0  0  0  0  0  0
    2.4363   -1.9900   27.4788 N   0  0  0  0  0  0  0  0  0  0  0  0
    1.0080   -2.0972   29.0989 H   0  0  0  0  0  0  0  0  0  0  0  0
   -0.0324   -2.3297   31.2742 H   0  0  0  0  0  0  0  0  0  0  0  0
    0.5611   -0.7227   31.7271 H   0  0  0  0  0  0  0  0  0  0  0  0
   -1.6538   -1.3133   29.7004 H   0  0  0  0  0  0  0  0  0  0  0  0
   -0.3068    0.7409   29.1352 H   0  0  0  0  0  0  0  0  0  0  0  0
   -0.7462    1.4324   30.7182 H   0  0  0  0  0  0  0  0  0  0  0  0
   -2.0886    1.8660   28.7334 H   0  0  0  0  0  0  0  0  0  0  0  0
   -2.7657    0.1774   31.8005 H   0  0  0  0  0  0  0  0  0  0  0  0
   -5.3841   -3.2672   32.9921 H   0  0  0  0  0  0  0  0  0  0  0  0
   -7.1388   -1.8240   34.4758 H   0  0  0  0  0  0  0  0  0  0  0  0
   -5.4152    1.5108   35.1544 H   0  0  0  0  0  0  0  0  0  0  0  0
   -7.6089    2.2711   35.1325 H   0  0  0  0  0  0  0  0  0  0  0  0
   -7.7659    1.1654   33.7636 H   0  0  0  0  0  0  0  0  0  0  0  0
   -9.4637    0.9230   35.8298 H   0  0  0  0  0  0  0  0  0  0  0  0
   -8.7367   -0.5632   35.2190 H   0  0  0  0  0  0  0  0  0  0  0  0
   -7.9633    1.0251   37.6677 H   0  0  0  0  0  0  0  0  0  0  0  0
   -8.0901   -0.7292   37.4966 H   0  0  0  0  0  0  0  0  0  0  0  0
   -5.8707   -0.8518   36.7431 H   0  0  0  0  0  0  0  0  0  0  0  0
   -5.7307    0.7977   37.3178 H   0  0  0  0  0  0  0  0  0  0  0  0
    4.5008    0.5735   27.8886 H   0  0  0  0  0  0  0  0  0  0  0  0
    4.5978   -0.6741   25.4175 H   0  0  0  0  0  0  0  0  0  0  0  0
    2.7997   -2.4518   25.5197 H   0  0  0  0  0  0  0  0  0  0  0  0
  1  2  2  0
  2  3  1  0
  3  4  1  0
  4  5  1  0
  5  6  1  0
  6  7  1  0
  5  8  1  0
  8  9  1  0
  9 10  2  0
  9 11  1  0
 11 12  1  0
 12 13  2  0
 13 14  1  0
 14 15  1  0
 15 16  1  0
 16 17  1  0
 17 18  1  0
 18 19  1  0
 14 20  1  0
  2 21  1  0
 21 22  1  0
 22 23  2  0
 23 24  1  0
 24 25  1  0
 20 11  2  0
 25 21  2  0
 19 15  1  0
  3 26  1  0
  4 27  1  0
  4 28  1  0
  5 29  1  0
  6 30  1  0
  6 31  1  0
  7 32  1  0
  8 33  1  0
 12 34  1  0
 13 35  1  0
 15 36  1  0
 16 37  1  0
 16 38  1  0
 17 39  1  0
 17 40  1  0
 18 41  1  0
 18 42  1  0
 19 43  1  0
 19 44  1  0
 22 45  1  0
 23 46  1  0
 24 47  1  0
M  END
>  <Energy>  (414) 
96.383462576509487

>  <compound_id>  (414) 
18717

>  <target_id>  (414) 
1

>  <reference_id>  (414) 
122

>  <inspiration_ids>  (414) 
[122, 7]

>  <energy_score>  (414) 
-33.75317803062819

>  <distance_score>  (414) 
11.36287179500511

>  <path>  (414) 
/opt/xchem-fragalysis-2/maxwin/BulkDock/SCRATCH/511023/C18717-P122/C18717-P122.minimised.mol

>  <scratch_subdir>  (414) 
/opt/xchem-fragalysis-2/maxwin/BulkDock/SCRATCH/511023/C18717-P122

>  <fragmenstein_runtime>  (414) 
17.75814652442932

>  <fragmenstein_outcome>  (414) 
too moved

>  <fragmenstein_mode>  (414) 
expansion

>  <fragmenstein_error>  (414) 


$$$$
C18717-P7
     RDKit          3D

 47 49  0  0  0  0  0  0  0  0999 V2000
    1.4779    0.7638   27.8338 O   0  0  0  0  0  0  0  0  0  0  0  0
    2.0975   -0.1186   28.3550 C   0  0  0  0  0  0  0  0  0  0  0  0
    1.8454   -0.8543   29.5747 N   0  0  0  0  0  0  0  0  0  0  0  0
    0.8010   -0.6863   30.6148 C   0  0  0  0  0  0  0  0  0  0  0  0
   -0.7261   -0.6699   30.2558 C   0  0  0  0  0  0  0  0  0  0  0  0
   -0.9965    0.4206   29.1990 C   0  0  0  0  0  0  0  0  0  0  0  0
   -2.3424    0.8814   29.2495 O   0  0  0  0  0  0  0  0  0  0  0  0
   -1.6390   -0.4138   31.4224 N   0  0  0  0  0  0  0  0  0  0  0  0
   -2.6135   -1.2768   32.0828 C   0  0  0  0  0  0  0  0  0  0  0  0
   -2.8734   -2.4358   31.9111 O   0  0  0  0  0  0  0  0  0  0  0  0
   -3.4998   -0.4978   33.0920 C   0  0  0  0  0  0  0  0  0  0  0  0
   -3.2711    0.7927   33.6582 C   0  0  0  0  0  0  0  0  0  0  0  0
   -4.3424    1.0679   34.4732 C   0  0  0  0  0  0  0  0  0  0  0  0
   -5.1598   -0.0252   34.4221 N   0  0  0  0  0  0  0  0  0  0  0  0
   -6.2834   -0.2520   35.3228 C   0  0  0  0  0  0  0  0  0  0  0  0
   -7.1262    0.9926   35.6606 C   0  0  0  0  0  0  0  0  0  0  0  0
   -8.4860    0.4674   36.1488 C   0  0  0  0  0  0  0  0  0  0  0  0
   -8.4653   -1.0325   35.8961 C   0  0  0  0  0  0  0  0  0  0  0  0
   -7.3615   -1.2236   34.8642 C   0  0  0  0  0  0  0  0  0  0  0  0
   -4.6760   -0.9843   33.5877 N   0  0  0  0  0  0  0  0  0  0  0  0
    3.4230   -0.4939   27.7214 C   0  0  0  0  0  0  0  0  0  0  0  0
    3.9151   -0.0778   26.4395 C   0  0  0  0  0  0  0  0  0  0  0  0
    5.2183   -0.5070   26.3657 C   0  0  0  0  0  0  0  0  0  0  0  0
    5.4601   -1.1130   27.5556 N   0  0  0  0  0  0  0  0  0  0  0  0
    4.3778   -1.2117   28.3573 N   0  0  0  0  0  0  0  0  0  0  0  0
    2.6316   -1.4791   29.7539 H   0  0  0  0  0  0  0  0  0  0  0  0
    0.9742   -1.4866   31.3437 H   0  0  0  0  0  0  0  0  0  0  0  0
    1.0468    0.2544   31.1230 H   0  0  0  0  0  0  0  0  0  0  0  0
   -1.0157   -1.6460   29.8499 H   0  0  0  0  0  0  0  0  0  0  0  0
   -0.8104    0.0301   28.1947 H   0  0  0  0  0  0  0  0  0  0  0  0
   -0.3727    1.3003   29.3843 H   0  0  0  0  0  0  0  0  0  0  0  0
   -2.4386    1.5116   28.5101 H   0  0  0  0  0  0  0  0  0  0  0  0
   -1.7493    0.5275   31.7620 H   0  0  0  0  0  0  0  0  0  0  0  0
   -2.4142    1.4365   33.5212 H   0  0  0  0  0  0  0  0  0  0  0  0
   -4.5487    1.9116   35.1175 H   0  0  0  0  0  0  0  0  0  0  0  0
   -5.8289   -0.6330   36.2486 H   0  0  0  0  0  0  0  0  0  0  0  0
   -6.6454    1.6143   36.4235 H   0  0  0  0  0  0  0  0  0  0  0  0
   -7.2744    1.6194   34.7722 H   0  0  0  0  0  0  0  0  0  0  0  0
   -8.6409    0.6837   37.2111 H   0  0  0  0  0  0  0  0  0  0  0  0
   -9.2956    0.9531   35.5938 H   0  0  0  0  0  0  0  0  0  0  0  0
   -8.1957   -1.5415   36.8273 H   0  0  0  0  0  0  0  0  0  0  0  0
   -9.4300   -1.4277   35.5692 H   0  0  0  0  0  0  0  0  0  0  0  0
   -6.9795   -2.2362   34.8751 H   0  0  0  0  0  0  0  0  0  0  0  0
   -7.7128   -0.9869   33.8535 H   0  0  0  0  0  0  0  0  0  0  0  0
    3.3870    0.4986   25.6917 H   0  0  0  0  0  0  0  0  0  0  0  0
    5.9713   -0.3975   25.5988 H   0  0  0  0  0  0  0  0  0  0  0  0
    6.3375   -1.4967   27.8915 H   0  0  0  0  0  0  0  0  0  0  0  0
  1  2  2  0
  2  3  1  0
  3  4  1  0
  4  5  1  0
  5  6  1  0
  6  7  1  0
  5  8  1  0
  8  9  1  0
  9 10  2  0
  9 11  1  0
 11 12  1  0
 12 13  2  0
 13 14  1  0
 14 15  1  0
 15 16  1  0
 16 17  1  0
 17 18  1  0
 18 19  1  0
 14 20  1  0
  2 21  1  0
 21 22  1  0
 22 23  2  0
 23 24  1  0
 24 25  1  0
 20 11  2  0
 25 21  2  0
 19 15  1  0
  3 26  1  0
  4 27  1  0
  4 28  1  0
  5 29  1  0
  6 30  1  0
  6 31  1  0
  7 32  1  0
  8 33  1  0
 12 34  1  0
 13 35  1  0
 15 36  1  0
 16 37  1  0
 16 38  1  0
 17 39  1  0
 17 40  1  0
 18 41  1  0
 18 42  1  0
 19 43  1  0
 19 44  1  0
 22 45  1  0
 23 46  1  0
 24 47  1  0
M  END
>  <Energy>  (415) 
117.58686509210879

>  <compound_id>  (415) 
18717

>  <target_id>  (415) 
1

>  <reference_id>  (415) 
7

>  <inspiration_ids>  (415) 
[122, 7]

>  <energy_score>  (415) 
-12.549775515029637

>  <distance_score>  (415) 
11.182625045925919

>  <path>  (415) 
/opt/xchem-fragalysis-2/maxwin/BulkDock/SCRATCH/511023/C18717-P7/C18717-P7.minimised.mol

>  <scratch_subdir>  (415) 
/opt/xchem-fragalysis-2/maxwin/BulkDock/SCRATCH/511023/C18717-P7

>  <fragmenstein_runtime>  (415) 
14.653835773468018

>  <fragmenstein_outcome>  (415) 
too moved

>  <fragmenstein_mode>  (415) 
expansion

>  <fragmenstein_error>  (415) 


$$$$
C18718-P122
     RDKit          3D

 50 52  0  0  0  0  0  0  0  0999 V2000
    0.1985   -0.4870   29.5951 C   0  0  0  0  0  0  0  0  0  0  0  0
   -0.2351   -1.8707   29.4485 N   0  0  0  0  0  0  0  0  0  0  0  0
    0.9311   -2.7539   28.9904 C   0  0  0  0  0  0  0  0  0  0  0  0
    1.7579   -2.4215   27.5715 C   0  0  0  0  0  0  0  0  0  0  0  0
    3.3247   -2.5335   27.2563 N   0  0  0  0  0  0  0  0  0  0  0  0
    3.4101   -1.8580   28.5485 C   0  0  0  0  0  0  0  0  0  0  0  0
    3.6179   -2.0375   25.8870 C   0  0  0  0  0  0  0  0  0  0  0  0
    3.9093   -0.9314   25.5097 O   0  0  0  0  0  0  0  0  0  0  0  0
    3.7066   -3.0931   24.6414 C   0  0  0  0  0  0  0  0  0  0  0  0
    4.6609   -2.8896   23.5905 C   0  0  0  0  0  0  0  0  0  0  0  0
    4.8441   -4.0499   22.8788 C   0  0  0  0  0  0  0  0  0  0  0  0
    3.9173   -4.8692   23.4004 N   0  0  0  0  0  0  0  0  0  0  0  0
    3.2412   -4.3448   24.4264 N   0  0  0  0  0  0  0  0  0  0  0  0
   -0.8396   -2.4130   30.7364 C   0  0  0  0  0  0  0  0  0  0  0  0
   -1.9835   -1.6389   31.4893 C   0  0  0  0  0  0  0  0  0  0  0  0
   -1.8914   -0.3870   32.1672 C   0  0  0  0  0  0  0  0  0  0  0  0
   -3.0658   -0.2251   32.8651 C   0  0  0  0  0  0  0  0  0  0  0  0
   -3.8190   -1.3334   32.6026 N   0  0  0  0  0  0  0  0  0  0  0  0
   -5.1678   -1.5958   33.1084 C   0  0  0  0  0  0  0  0  0  0  0  0
   -5.1980   -1.8627   34.6137 C   0  0  0  0  0  0  0  0  0  0  0  0
   -6.5123   -1.2456   35.1067 C   0  0  0  0  0  0  0  0  0  0  0  0
   -6.6360    0.0094   34.2939 C   0  0  0  0  0  0  0  0  0  0  0  0
   -6.1573   -0.4245   32.9204 C   0  0  0  0  0  0  0  0  0  0  0  0
   -3.1678   -2.2216   31.8019 N   0  0  0  0  0  0  0  0  0  0  0  0
   -0.6538    0.1716   29.7852 H   0  0  0  0  0  0  0  0  0  0  0  0
    0.6394   -0.1063   28.6694 H   0  0  0  0  0  0  0  0  0  0  0  0
    0.9307   -0.3667   30.4008 H   0  0  0  0  0  0  0  0  0  0  0  0
    1.6036   -2.8683   29.8426 H   0  0  0  0  0  0  0  0  0  0  0  0
    0.5000   -3.7522   28.8307 H   0  0  0  0  0  0  0  0  0  0  0  0
    1.4002   -3.2397   26.9675 H   0  0  0  0  0  0  0  0  0  0  0  0
    1.3880   -1.4875   27.1316 H   0  0  0  0  0  0  0  0  0  0  0  0
    2.8692   -0.9100   28.6730 H   0  0  0  0  0  0  0  0  0  0  0  0
    3.4109   -2.5601   29.3857 H   0  0  0  0  0  0  0  0  0  0  0  0
    4.4516   -1.4986   28.5598 H   0  0  0  0  0  0  0  0  0  0  0  0
    5.1966   -1.9900   23.4500 H   0  0  0  0  0  0  0  0  0  0  0  0
    5.4928   -4.3229   22.0604 H   0  0  0  0  0  0  0  0  0  0  0  0
    3.6999   -5.8203   23.1301 H   0  0  0  0  0  0  0  0  0  0  0  0
   -0.0347   -2.5407   31.4735 H   0  0  0  0  0  0  0  0  0  0  0  0
   -1.2302   -3.4130   30.5126 H   0  0  0  0  0  0  0  0  0  0  0  0
   -1.0447    0.2840   32.1816 H   0  0  0  0  0  0  0  0  0  0  0  0
   -3.4042    0.5572   33.5280 H   0  0  0  0  0  0  0  0  0  0  0  0
   -5.5425   -2.4676   32.5583 H   0  0  0  0  0  0  0  0  0  0  0  0
   -5.1325   -2.9353   34.8078 H   0  0  0  0  0  0  0  0  0  0  0  0
   -4.3562   -1.3872   35.1316 H   0  0  0  0  0  0  0  0  0  0  0  0
   -6.4924   -1.0131   36.1754 H   0  0  0  0  0  0  0  0  0  0  0  0
   -7.3610   -1.9037   34.8952 H   0  0  0  0  0  0  0  0  0  0  0  0
   -5.9704    0.7847   34.6930 H   0  0  0  0  0  0  0  0  0  0  0  0
   -7.6490    0.4168   34.2837 H   0  0  0  0  0  0  0  0  0  0  0  0
   -5.6904    0.4337   32.4458 H   0  0  0  0  0  0  0  0  0  0  0  0
   -7.0036   -0.7509   32.3066 H   0  0  0  0  0  0  0  0  0  0  0  0
  1  2  1  0
  2  3  1  0
  3  4  1  0
  4  5  1  0
  5  6  1  0
  5  7  1  0
  7  8  2  0
  7  9  1  0
  9 10  1  0
 10 11  2  0
 11 12  1  0
 12 13  1  0
  2 14  1  0
 14 15  1  0
 15 16  1  0
 16 17  2  0
 17 18  1  0
 18 19  1  0
 19 20  1  0
 20 21  1  0
 21 22  1  0
 22 23  1  0
 18 24  1  0
 13  9  2  0
 24 15  2  0
 23 19  1  0
  1 25  1  0
  1 26  1  0
  1 27  1  0
  3 28  1  0
  3 29  1  0
  4 30  1  0
  4 31  1  0
  6 32  1  0
  6 33  1  0
  6 34  1  0
 10 35  1  0
 11 36  1  0
 12 37  1  0
 14 38  1  0
 14 39  1  0
 16 40  1  0
 17 41  1  0
 19 42  1  0
 20 43  1  0
 20 44  1  0
 21 45  1  0
 21 46  1  0
 22 47  1  0
 22 48  1  0
 23 49  1  0
 23 50  1  0
M  END
>  <Energy>  (416) 
223.27937798586314

>  <compound_id>  (416) 
18718

>  <target_id>  (416) 
1

>  <reference_id>  (416) 
122

>  <inspiration_ids>  (416) 
[122, 7]

>  <energy_score>  (416) 
65.87293629133228

>  <distance_score>  (416) 
10.975417456283543

>  <path>  (416) 
/opt/xchem-fragalysis-2/maxwin/BulkDock/SCRATCH/511023/C18718-P122/C18718-P122.minimised.mol

>  <scratch_subdir>  (416) 
/opt/xchem-fragalysis-2/maxwin/BulkDock/SCRATCH/511023/C18718-P122

>  <fragmenstein_runtime>  (416) 
12.07307481765747

>  <fragmenstein_outcome>  (416) 
too moved

>  <fragmenstein_mode>  (416) 
expansion

>  <fragmenstein_error>  (416) 


$$$$
C18718-P7
     RDKit          3D

 50 52  0  0  0  0  0  0  0  0999 V2000
    4.6930   -0.3824   24.9534 C   0  0  0  0  0  0  0  0  0  0  0  0
    4.7768   -1.3767   23.8503 N   0  0  0  0  0  0  0  0  0  0  0  0
    4.6501   -0.6337   22.0391 C   0  0  0  0  0  0  0  0  0  0  0  0
    5.4324   -0.0603   20.4239 C   0  0  0  0  0  0  0  0  0  0  0  0
    5.0241    0.8740   19.0813 N   0  0  0  0  0  0  0  0  0  0  0  0
    3.6838    0.7254   19.6381 C   0  0  0  0  0  0  0  0  0  0  0  0
    5.6070    0.3202   17.9085 C   0  0  0  0  0  0  0  0  0  0  0  0
    5.1750   -0.4823   17.1289 O   0  0  0  0  0  0  0  0  0  0  0  0
    6.9344    0.9375   17.5712 C   0  0  0  0  0  0  0  0  0  0  0  0
    7.2999    2.3092   17.6629 C   0  0  0  0  0  0  0  0  0  0  0  0
    8.4673    2.4367   16.9422 C   0  0  0  0  0  0  0  0  0  0  0  0
    8.7570    1.1930   16.4731 N   0  0  0  0  0  0  0  0  0  0  0  0
    7.9113    0.2564   16.9224 N   0  0  0  0  0  0  0  0  0  0  0  0
    3.5410   -2.2182   24.5949 C   0  0  0  0  0  0  0  0  0  0  0  0
    2.7826   -1.8056   26.2489 C   0  0  0  0  0  0  0  0  0  0  0  0
    2.1881   -2.7534   27.1849 C   0  0  0  0  0  0  0  0  0  0  0  0
    1.4993   -2.1188   28.1824 C   0  0  0  0  0  0  0  0  0  0  0  0
    1.5703   -0.8132   27.8556 N   0  0  0  0  0  0  0  0  0  0  0  0
    0.7664    0.2319   28.5145 C   0  0  0  0  0  0  0  0  0  0  0  0
   -0.6508    0.3625   27.9444 C   0  0  0  0  0  0  0  0  0  0  0  0
   -1.5229   -0.5593   28.7979 C   0  0  0  0  0  0  0  0  0  0  0  0
   -0.9878   -0.3908   30.2068 C   0  0  0  0  0  0  0  0  0  0  0  0
    0.4847    0.0223   30.0361 C   0  0  0  0  0  0  0  0  0  0  0  0
    2.4461   -0.5717   26.7896 N   0  0  0  0  0  0  0  0  0  0  0  0
    3.7708    0.2009   25.0134 H   0  0  0  0  0  0  0  0  0  0  0  0
    5.4226    0.3432   25.0785 H   0  0  0  0  0  0  0  0  0  0  0  0
    4.9050   -0.8974   25.9013 H   0  0  0  0  0  0  0  0  0  0  0  0
    5.3604   -1.4522   21.8380 H   0  0  0  0  0  0  0  0  0  0  0  0
    4.7231    0.4353   22.3412 H   0  0  0  0  0  0  0  0  0  0  0  0
    5.8403   -0.9757   19.9748 H   0  0  0  0  0  0  0  0  0  0  0  0
    6.2975    0.5284   20.7213 H   0  0  0  0  0  0  0  0  0  0  0  0
    3.1856    1.6210   19.2253 H   0  0  0  0  0  0  0  0  0  0  0  0
    3.4218    0.8343   20.6867 H   0  0  0  0  0  0  0  0  0  0  0  0
    3.1193   -0.0286   19.0733 H   0  0  0  0  0  0  0  0  0  0  0  0
    6.7253    3.1035   18.1189 H   0  0  0  0  0  0  0  0  0  0  0  0
    9.0762    3.2939   16.6932 H   0  0  0  0  0  0  0  0  0  0  0  0
    9.4987    0.9112   15.8367 H   0  0  0  0  0  0  0  0  0  0  0  0
    4.0060   -3.1776   24.8384 H   0  0  0  0  0  0  0  0  0  0  0  0
    2.8433   -2.4735   23.8135 H   0  0  0  0  0  0  0  0  0  0  0  0
    2.0462   -3.8015   27.0931 H   0  0  0  0  0  0  0  0  0  0  0  0
    0.8848   -2.5106   28.9785 H   0  0  0  0  0  0  0  0  0  0  0  0
    1.3343    1.1578   28.3638 H   0  0  0  0  0  0  0  0  0  0  0  0
   -0.9974    1.3963   28.0707 H   0  0  0  0  0  0  0  0  0  0  0  0
   -0.7266    0.1186   26.8869 H   0  0  0  0  0  0  0  0  0  0  0  0
   -2.5724   -0.2867   28.7194 H   0  0  0  0  0  0  0  0  0  0  0  0
   -1.4182   -1.5985   28.4687 H   0  0  0  0  0  0  0  0  0  0  0  0
   -1.5356    0.4005   30.7315 H   0  0  0  0  0  0  0  0  0  0  0  0
   -1.0895   -1.3099   30.7919 H   0  0  0  0  0  0  0  0  0  0  0  0
    0.6406    0.9731   30.5615 H   0  0  0  0  0  0  0  0  0  0  0  0
    1.1628   -0.7005   30.5010 H   0  0  0  0  0  0  0  0  0  0  0  0
  1  2  1  0
  2  3  1  0
  3  4  1  0
  4  5  1  0
  5  6  1  0
  5  7  1  0
  7  8  2  0
  7  9  1  0
  9 10  1  0
 10 11  2  0
 11 12  1  0
 12 13  1  0
  2 14  1  0
 14 15  1  0
 15 16  1  0
 16 17  2  0
 17 18  1  0
 18 19  1  0
 19 20  1  0
 20 21  1  0
 21 22  1  0
 22 23  1  0
 18 24  1  0
 13  9  2  0
 24 15  2  0
 23 19  1  0
  1 25  1  0
  1 26  1  0
  1 27  1  0
  3 28  1  0
  3 29  1  0
  4 30  1  0
  4 31  1  0
  6 32  1  0
  6 33  1  0
  6 34  1  0
 10 35  1  0
 11 36  1  0
 12 37  1  0
 14 38  1  0
 14 39  1  0
 16 40  1  0
 17 41  1  0
 19 42  1  0
 20 43  1  0
 20 44  1  0
 21 45  1  0
 21 46  1  0
 22 47  1  0
 22 48  1  0
 23 49  1  0
 23 50  1  0
M  END
>  <Energy>  (417) 
450.24950053580261

>  <compound_id>  (417) 
18718

>  <target_id>  (417) 
1

>  <reference_id>  (417) 
7

>  <inspiration_ids>  (417) 
[122, 7]

>  <energy_score>  (417) 
292.84305884127326

>  <distance_score>  (417) 
13.989763315560735

>  <path>  (417) 
/opt/xchem-fragalysis-2/maxwin/BulkDock/SCRATCH/511023/C18718-P7/C18718-P7.minimised.mol

>  <scratch_subdir>  (417) 
/opt/xchem-fragalysis-2/maxwin/BulkDock/SCRATCH/511023/C18718-P7

>  <fragmenstein_runtime>  (417) 
12.15897798538208

>  <fragmenstein_outcome>  (417) 
too moved

>  <fragmenstein_mode>  (417) 
expansion

>  <fragmenstein_error>  (417) 


$$$$
C18719-P122
     RDKit          3D

 46 48  0  0  0  0  0  0  0  0999 V2000
   -0.4800    0.5611   30.2440 C   0  0  0  0  0  0  0  0  0  0  0  0
   -0.3365   -0.8410   30.8345 C   0  0  0  0  0  0  0  0  0  0  0  0
    1.1666   -1.2786   30.8478 C   0  0  0  0  0  0  0  0  0  0  0  0
    1.9278   -1.2510   29.5934 N   0  0  0  0  0  0  0  0  0  0  0  0
    3.3217   -0.9602   29.3372 C   0  0  0  0  0  0  0  0  0  0  0  0
    4.1897   -0.5910   30.0742 O   0  0  0  0  0  0  0  0  0  0  0  0
    3.7003   -1.2187   27.8982 C   0  0  0  0  0  0  0  0  0  0  0  0
    4.9757   -1.0217   27.2687 C   0  0  0  0  0  0  0  0  0  0  0  0
    4.8173   -1.3926   25.9529 C   0  0  0  0  0  0  0  0  0  0  0  0
    3.5126   -1.7759   25.8357 N   0  0  0  0  0  0  0  0  0  0  0  0
    2.8266   -1.7134   27.0049 N   0  0  0  0  0  0  0  0  0  0  0  0
   -0.9631   -0.8887   32.1910 N   0  0  0  0  0  0  0  0  0  0  0  0
   -2.3083   -0.5608   32.6302 C   0  0  0  0  0  0  0  0  0  0  0  0
   -3.2281   -0.0964   32.0309 O   0  0  0  0  0  0  0  0  0  0  0  0
   -2.4992   -0.8006   34.0878 C   0  0  0  0  0  0  0  0  0  0  0  0
   -1.5152   -0.7194   35.0709 C   0  0  0  0  0  0  0  0  0  0  0  0
   -2.1089   -1.0867   36.2794 C   0  0  0  0  0  0  0  0  0  0  0  0
   -3.3851   -1.3896   36.1163 N   0  0  0  0  0  0  0  0  0  0  0  0
   -3.6659   -1.0363   34.8339 N   0  0  0  0  0  0  0  0  0  0  0  0
   -5.0793   -1.1760   34.5431 C   0  0  0  0  0  0  0  0  0  0  0  0
   -5.6378   -0.7816   33.2027 C   0  0  0  0  0  0  0  0  0  0  0  0
   -7.1356   -0.7481   33.4257 C   0  0  0  0  0  0  0  0  0  0  0  0
   -7.3650   -0.4864   34.9100 C   0  0  0  0  0  0  0  0  0  0  0  0
   -5.9665   -0.3489   35.4945 C   0  0  0  0  0  0  0  0  0  0  0  0
   -0.0530    0.6152   29.2375 H   0  0  0  0  0  0  0  0  0  0  0  0
   -1.5336    0.8475   30.1659 H   0  0  0  0  0  0  0  0  0  0  0  0
    0.0209    1.3062   30.8716 H   0  0  0  0  0  0  0  0  0  0  0  0
   -0.9072   -1.5384   30.2101 H   0  0  0  0  0  0  0  0  0  0  0  0
    1.2284   -2.3100   31.2145 H   0  0  0  0  0  0  0  0  0  0  0  0
    1.7196   -0.6650   31.5694 H   0  0  0  0  0  0  0  0  0  0  0  0
    1.5037   -1.6242   28.7407 H   0  0  0  0  0  0  0  0  0  0  0  0
    5.8720   -0.6423   27.7390 H   0  0  0  0  0  0  0  0  0  0  0  0
    5.4800   -1.3925   25.1002 H   0  0  0  0  0  0  0  0  0  0  0  0
    3.0012   -2.0806   25.0037 H   0  0  0  0  0  0  0  0  0  0  0  0
   -0.4703   -1.3455   32.9474 H   0  0  0  0  0  0  0  0  0  0  0  0
   -0.4791   -0.4419   34.9299 H   0  0  0  0  0  0  0  0  0  0  0  0
   -1.6600   -1.1733   37.2615 H   0  0  0  0  0  0  0  0  0  0  0  0
   -5.3038   -2.2401   34.6984 H   0  0  0  0  0  0  0  0  0  0  0  0
   -5.3624   -1.4853   32.4129 H   0  0  0  0  0  0  0  0  0  0  0  0
   -5.3147    0.2271   32.9262 H   0  0  0  0  0  0  0  0  0  0  0  0
   -7.5860   -1.6986   33.1393 H   0  0  0  0  0  0  0  0  0  0  0  0
   -7.5506    0.0378   32.7952 H   0  0  0  0  0  0  0  0  0  0  0  0
   -7.8951   -1.3323   35.3614 H   0  0  0  0  0  0  0  0  0  0  0  0
   -7.9641    0.4126   35.0841 H   0  0  0  0  0  0  0  0  0  0  0  0
   -5.9332   -0.6968   36.5318 H   0  0  0  0  0  0  0  0  0  0  0  0
   -5.6558    0.7040   35.4905 H   0  0  0  0  0  0  0  0  0  0  0  0
  1  2  1  0
  2  3  1  0
  3  4  1  0
  4  5  1  0
  5  6  2  0
  5  7  1  0
  7  8  1  0
  8  9  2  0
  9 10  1  0
 10 11  1  0
  2 12  1  0
 12 13  1  0
 13 14  2  0
 13 15  1  0
 15 16  2  0
 16 17  1  0
 17 18  2  0
 18 19  1  0
 19 20  1  0
 20 21  1  0
 21 22  1  0
 22 23  1  0
 23 24  1  0
 11  7  2  0
 19 15  1  0
 24 20  1  0
  1 25  1  0
  1 26  1  0
  1 27  1  0
  2 28  1  0
  3 29  1  0
  3 30  1  0
  4 31  1  0
  8 32  1  0
  9 33  1  0
 10 34  1  0
 12 35  1  0
 16 36  1  0
 17 37  1  0
 20 38  1  0
 21 39  1  0
 21 40  1  0
 22 41  1  0
 22 42  1  0
 23 43  1  0
 23 44  1  0
 24 45  1  0
 24 46  1  0
M  END
>  <Energy>  (418) 
37.508949511863527

>  <compound_id>  (418) 
18719

>  <target_id>  (418) 
1

>  <reference_id>  (418) 
122

>  <inspiration_ids>  (418) 
[122, 7]

>  <energy_score>  (418) 
-30.244531830410835

>  <distance_score>  (418) 
11.771080500885663

>  <path>  (418) 
/opt/xchem-fragalysis-2/maxwin/BulkDock/SCRATCH/511023/C18719-P122/C18719-P122.minimised.mol

>  <scratch_subdir>  (418) 
/opt/xchem-fragalysis-2/maxwin/BulkDock/SCRATCH/511023/C18719-P122

>  <fragmenstein_runtime>  (418) 
17.802011728286743

>  <fragmenstein_outcome>  (418) 
too moved

>  <fragmenstein_mode>  (418) 
expansion

>  <fragmenstein_error>  (418) 


$$$$
C18719-P7
     RDKit          3D

 46 48  0  0  0  0  0  0  0  0999 V2000
   -0.3937    0.5867   32.3704 C   0  0  0  0  0  0  0  0  0  0  0  0
   -1.1099   -0.6387   31.8107 C   0  0  0  0  0  0  0  0  0  0  0  0
   -1.0892   -0.6492   30.2387 C   0  0  0  0  0  0  0  0  0  0  0  0
    0.1612   -0.8388   29.4886 N   0  0  0  0  0  0  0  0  0  0  0  0
    1.2718    0.0529   29.2592 C   0  0  0  0  0  0  0  0  0  0  0  0
    1.4947    1.1478   29.6884 O   0  0  0  0  0  0  0  0  0  0  0  0
    2.2272   -0.5115   28.2191 C   0  0  0  0  0  0  0  0  0  0  0  0
    3.4041    0.1071   27.6750 C   0  0  0  0  0  0  0  0  0  0  0  0
    3.8179   -0.6922   26.6332 C   0  0  0  0  0  0  0  0  0  0  0  0
    2.9031   -1.7008   26.5684 N   0  0  0  0  0  0  0  0  0  0  0  0
    2.0086   -1.6868   27.5914 N   0  0  0  0  0  0  0  0  0  0  0  0
   -2.5107   -0.7027   32.3495 N   0  0  0  0  0  0  0  0  0  0  0  0
   -3.0070   -0.7097   33.7172 C   0  0  0  0  0  0  0  0  0  0  0  0
   -2.4206   -0.7452   34.7573 O   0  0  0  0  0  0  0  0  0  0  0  0
   -4.4838   -0.7786   33.7638 C   0  0  0  0  0  0  0  0  0  0  0  0
   -5.3333   -1.4566   32.9007 C   0  0  0  0  0  0  0  0  0  0  0  0
   -6.6339   -1.1523   33.3044 C   0  0  0  0  0  0  0  0  0  0  0  0
   -6.6548   -0.4519   34.4237 N   0  0  0  0  0  0  0  0  0  0  0  0
   -5.3518   -0.2955   34.7485 N   0  0  0  0  0  0  0  0  0  0  0  0
   -5.0678    0.3595   36.0216 C   0  0  0  0  0  0  0  0  0  0  0  0
   -6.1026    1.4327   36.4234 C   0  0  0  0  0  0  0  0  0  0  0  0
   -7.1777    0.7318   37.2639 C   0  0  0  0  0  0  0  0  0  0  0  0
   -6.6207   -0.6442   37.6058 C   0  0  0  0  0  0  0  0  0  0  0  0
   -5.1398   -0.5993   37.2112 C   0  0  0  0  0  0  0  0  0  0  0  0
    0.6616    0.5908   32.0859 H   0  0  0  0  0  0  0  0  0  0  0  0
   -0.4316    0.6029   33.4645 H   0  0  0  0  0  0  0  0  0  0  0  0
   -0.8553    1.5126   32.0125 H   0  0  0  0  0  0  0  0  0  0  0  0
   -0.6072   -1.5381   32.1843 H   0  0  0  0  0  0  0  0  0  0  0  0
   -1.5230    0.2920   29.8786 H   0  0  0  0  0  0  0  0  0  0  0  0
   -1.7526   -1.4521   29.8951 H   0  0  0  0  0  0  0  0  0  0  0  0
    0.2647   -1.6601   28.8881 H   0  0  0  0  0  0  0  0  0  0  0  0
    3.8303    1.0534   27.9781 H   0  0  0  0  0  0  0  0  0  0  0  0
    4.6014   -0.5916   25.8956 H   0  0  0  0  0  0  0  0  0  0  0  0
    2.7688   -2.3862   25.8244 H   0  0  0  0  0  0  0  0  0  0  0  0
   -3.2900   -0.5833   31.7154 H   0  0  0  0  0  0  0  0  0  0  0  0
   -5.0461   -2.0699   32.0596 H   0  0  0  0  0  0  0  0  0  0  0  0
   -7.5675   -1.4290   32.8494 H   0  0  0  0  0  0  0  0  0  0  0  0
   -4.0766    0.8135   35.9269 H   0  0  0  0  0  0  0  0  0  0  0  0
   -6.5316    1.9699   35.5711 H   0  0  0  0  0  0  0  0  0  0  0  0
   -5.6061    2.1818   37.0538 H   0  0  0  0  0  0  0  0  0  0  0  0
   -8.1185    0.6419   36.7101 H   0  0  0  0  0  0  0  0  0  0  0  0
   -7.3888    1.3100   38.1700 H   0  0  0  0  0  0  0  0  0  0  0  0
   -7.1603   -1.3963   37.0244 H   0  0  0  0  0  0  0  0  0  0  0  0
   -6.7508   -0.8922   38.6636 H   0  0  0  0  0  0  0  0  0  0  0  0
   -4.5627   -0.1845   38.0474 H   0  0  0  0  0  0  0  0  0  0  0  0
   -4.7327   -1.5884   36.9887 H   0  0  0  0  0  0  0  0  0  0  0  0
  1  2  1  0
  2  3  1  0
  3  4  1  0
  4  5  1  0
  5  6  2  0
  5  7  1  0
  7  8  1  0
  8  9  2  0
  9 10  1  0
 10 11  1  0
  2 12  1  0
 12 13  1  0
 13 14  2  0
 13 15  1  0
 15 16  2  0
 16 17  1  0
 17 18  2  0
 18 19  1  0
 19 20  1  0
 20 21  1  0
 21 22  1  0
 22 23  1  0
 23 24  1  0
 11  7  2  0
 19 15  1  0
 24 20  1  0
  1 25  1  0
  1 26  1  0
  1 27  1  0
  2 28  1  0
  3 29  1  0
  3 30  1  0
  4 31  1  0
  8 32  1  0
  9 33  1  0
 10 34  1  0
 12 35  1  0
 16 36  1  0
 17 37  1  0
 20 38  1  0
 21 39  1  0
 21 40  1  0
 22 41  1  0
 22 42  1  0
 23 43  1  0
 23 44  1  0
 24 45  1  0
 24 46  1  0
M  END
>  <Energy>  (419) 
31.140138894678802

>  <compound_id>  (419) 
18719

>  <target_id>  (419) 
1

>  <reference_id>  (419) 
7

>  <inspiration_ids>  (419) 
[122, 7]

>  <energy_score>  (419) 
-36.61334244759638

>  <distance_score>  (419) 
11.620171396209198

>  <path>  (419) 
/opt/xchem-fragalysis-2/maxwin/BulkDock/SCRATCH/511023/C18719-P7/C18719-P7.minimised.mol

>  <scratch_subdir>  (419) 
/opt/xchem-fragalysis-2/maxwin/BulkDock/SCRATCH/511023/C18719-P7

>  <fragmenstein_runtime>  (419) 
18.964432954788208

>  <fragmenstein_outcome>  (419) 
too moved

>  <fragmenstein_mode>  (419) 
expansion

>  <fragmenstein_error>  (419) 


$$$$
C13498-P122
     RDKit          3D

 37 39  0  0  0  0  0  0  0  0999 V2000
   -1.3116   -3.5477   31.1943 O   0  0  0  0  0  0  0  0  0  0  0  0
   -1.3422   -2.3600   31.0298 C   0  0  0  0  0  0  0  0  0  0  0  0
   -0.4880   -1.4867   30.2179 N   0  0  0  0  0  0  0  0  0  0  0  0
    0.6662   -1.7670   29.4714 N   0  0  0  0  0  0  0  0  0  0  0  0
    1.1753   -1.1706   28.2418 C   0  0  0  0  0  0  0  0  0  0  0  0
    0.6951   -0.3464   27.5195 O   0  0  0  0  0  0  0  0  0  0  0  0
    2.5420   -1.6297   27.8728 C   0  0  0  0  0  0  0  0  0  0  0  0
    3.6941   -1.8684   28.6089 C   0  0  0  0  0  0  0  0  0  0  0  0
    4.7298   -2.0997   27.6738 C   0  0  0  0  0  0  0  0  0  0  0  0
    4.2880   -2.0686   26.4222 N   0  0  0  0  0  0  0  0  0  0  0  0
    2.9736   -1.7807   26.5578 N   0  0  0  0  0  0  0  0  0  0  0  0
   -2.4397   -1.6010   31.8140 C   0  0  0  0  0  0  0  0  0  0  0  0
   -2.5933   -0.1970   32.0356 C   0  0  0  0  0  0  0  0  0  0  0  0
   -3.6797   -0.0433   32.8650 C   0  0  0  0  0  0  0  0  0  0  0  0
   -4.1649   -1.2953   33.1028 N   0  0  0  0  0  0  0  0  0  0  0  0
   -5.2615   -1.6209   34.0111 C   0  0  0  0  0  0  0  0  0  0  0  0
   -5.0458   -1.0599   35.4338 C   0  0  0  0  0  0  0  0  0  0  0  0
   -6.3928   -0.4887   35.8930 C   0  0  0  0  0  0  0  0  0  0  0  0
   -7.4187   -0.9751   34.8859 C   0  0  0  0  0  0  0  0  0  0  0  0
   -6.6289   -1.0596   33.5857 C   0  0  0  0  0  0  0  0  0  0  0  0
   -3.4445   -2.2583   32.4695 N   0  0  0  0  0  0  0  0  0  0  0  0
   -0.7505   -0.5225   30.3792 H   0  0  0  0  0  0  0  0  0  0  0  0
    1.3787   -2.3747   29.8661 H   0  0  0  0  0  0  0  0  0  0  0  0
    3.7999   -1.8145   29.6829 H   0  0  0  0  0  0  0  0  0  0  0  0
    5.7785   -2.2930   27.8599 H   0  0  0  0  0  0  0  0  0  0  0  0
    2.4072   -1.7409   25.7130 H   0  0  0  0  0  0  0  0  0  0  0  0
   -1.9698    0.6090   31.6762 H   0  0  0  0  0  0  0  0  0  0  0  0
   -4.1190    0.8304   33.3230 H   0  0  0  0  0  0  0  0  0  0  0  0
   -5.3189   -2.7158   34.0637 H   0  0  0  0  0  0  0  0  0  0  0  0
   -4.7006   -1.8550   36.1016 H   0  0  0  0  0  0  0  0  0  0  0  0
   -4.2798   -0.2785   35.4876 H   0  0  0  0  0  0  0  0  0  0  0  0
   -6.6424   -0.7731   36.9193 H   0  0  0  0  0  0  0  0  0  0  0  0
   -6.3438    0.6069   35.8648 H   0  0  0  0  0  0  0  0  0  0  0  0
   -7.8111   -1.9566   35.1609 H   0  0  0  0  0  0  0  0  0  0  0  0
   -8.2613   -0.2841   34.8289 H   0  0  0  0  0  0  0  0  0  0  0  0
   -6.5307   -0.0579   33.1495 H   0  0  0  0  0  0  0  0  0  0  0  0
   -7.1181   -1.6898   32.8381 H   0  0  0  0  0  0  0  0  0  0  0  0
  1  2  2  0
  2  3  1  0
  3  4  1  0
  4  5  1  0
  5  6  2  0
  5  7  1  0
  7  8  2  0
  8  9  1  0
  9 10  2  0
 10 11  1  0
  2 12  1  0
 12 13  1  0
 13 14  2  0
 14 15  1  0
 15 16  1  0
 16 17  1  0
 17 18  1  0
 18 19  1  0
 19 20  1  0
 15 21  1  0
 11  7  1  0
 21 12  2  0
 20 16  1  0
  3 22  1  0
  4 23  1  0
  8 24  1  0
  9 25  1  0
 11 26  1  0
 13 27  1  0
 14 28  1  0
 16 29  1  0
 17 30  1  0
 17 31  1  0
 18 32  1  0
 18 33  1  0
 19 34  1  0
 19 35  1  0
 20 36  1  0
 20 37  1  0
M  END
>  <Energy>  (420) 
108.63809322419337

>  <compound_id>  (420) 
13498

>  <target_id>  (420) 
1

>  <reference_id>  (420) 
122

>  <inspiration_ids>  (420) 
[122, 7]

>  <energy_score>  (420) 
-1.902407811336218

>  <distance_score>  (420) 
12.007033351224269

>  <path>  (420) 
/opt/xchem-fragalysis-2/maxwin/BulkDock/SCRATCH/511023/C13498-P122/C13498-P122.minimised.mol

>  <scratch_subdir>  (420) 
/opt/xchem-fragalysis-2/maxwin/BulkDock/SCRATCH/511023/C13498-P122

>  <fragmenstein_runtime>  (420) 
14.027565956115723

>  <fragmenstein_outcome>  (420) 
too moved

>  <fragmenstein_mode>  (420) 
expansion

>  <fragmenstein_error>  (420) 


$$$$
C13498-P7
     RDKit          3D

 37 39  0  0  0  0  0  0  0  0999 V2000
   -1.8372   -2.8264   31.0279 O   0  0  0  0  0  0  0  0  0  0  0  0
   -1.7276   -1.6387   31.1605 C   0  0  0  0  0  0  0  0  0  0  0  0
   -0.7722   -0.6990   30.5740 N   0  0  0  0  0  0  0  0  0  0  0  0
    0.2303   -0.8894   29.6213 N   0  0  0  0  0  0  0  0  0  0  0  0
    1.3224   -0.0238   29.2022 C   0  0  0  0  0  0  0  0  0  0  0  0
    1.5885    1.1014   29.5142 O   0  0  0  0  0  0  0  0  0  0  0  0
    2.2328   -0.6131   28.1874 C   0  0  0  0  0  0  0  0  0  0  0  0
    2.3245   -1.8030   27.4817 C   0  0  0  0  0  0  0  0  0  0  0  0
    3.4368   -1.6726   26.6098 C   0  0  0  0  0  0  0  0  0  0  0  0
    4.0689   -0.5154   26.7837 N   0  0  0  0  0  0  0  0  0  0  0  0
    3.3130    0.1122   27.7014 N   0  0  0  0  0  0  0  0  0  0  0  0
   -2.7233   -0.9492   32.1072 C   0  0  0  0  0  0  0  0  0  0  0  0
   -2.5763    0.2594   32.8548 C   0  0  0  0  0  0  0  0  0  0  0  0
   -3.7532    0.4436   33.5478 C   0  0  0  0  0  0  0  0  0  0  0  0
   -4.5714   -0.5798   33.1783 N   0  0  0  0  0  0  0  0  0  0  0  0
   -5.9668   -0.7736   33.5444 C   0  0  0  0  0  0  0  0  0  0  0  0
   -6.8524    0.4877   33.6282 C   0  0  0  0  0  0  0  0  0  0  0  0
   -7.5981    0.3984   34.9675 C   0  0  0  0  0  0  0  0  0  0  0  0
   -7.5218   -1.0672   35.3541 C   0  0  0  0  0  0  0  0  0  0  0  0
   -6.1123   -1.4278   34.9097 C   0  0  0  0  0  0  0  0  0  0  0  0
   -3.9384   -1.4879   32.3948 N   0  0  0  0  0  0  0  0  0  0  0  0
   -1.0274    0.2458   30.8427 H   0  0  0  0  0  0  0  0  0  0  0  0
    0.2688   -1.7550   29.0889 H   0  0  0  0  0  0  0  0  0  0  0  0
    1.6586   -2.6509   27.5343 H   0  0  0  0  0  0  0  0  0  0  0  0
    3.7980   -2.3698   25.8643 H   0  0  0  0  0  0  0  0  0  0  0  0
    3.5714    1.0518   27.9852 H   0  0  0  0  0  0  0  0  0  0  0  0
   -1.7064    0.9001   32.9085 H   0  0  0  0  0  0  0  0  0  0  0  0
   -4.0610    1.2100   34.2462 H   0  0  0  0  0  0  0  0  0  0  0  0
   -6.3959   -1.4313   32.7759 H   0  0  0  0  0  0  0  0  0  0  0  0
   -7.5729    0.4738   32.8036 H   0  0  0  0  0  0  0  0  0  0  0  0
   -6.3047    1.4315   33.5519 H   0  0  0  0  0  0  0  0  0  0  0  0
   -7.0707    1.0049   35.7144 H   0  0  0  0  0  0  0  0  0  0  0  0
   -8.6211    0.7758   34.9063 H   0  0  0  0  0  0  0  0  0  0  0  0
   -7.6782   -1.2228   36.4248 H   0  0  0  0  0  0  0  0  0  0  0  0
   -8.2664   -1.6500   34.8028 H   0  0  0  0  0  0  0  0  0  0  0  0
   -5.9264   -2.4961   34.8205 H   0  0  0  0  0  0  0  0  0  0  0  0
   -5.3825   -1.0284   35.6261 H   0  0  0  0  0  0  0  0  0  0  0  0
  1  2  2  0
  2  3  1  0
  3  4  1  0
  4  5  1  0
  5  6  2  0
  5  7  1  0
  7  8  2  0
  8  9  1  0
  9 10  2  0
 10 11  1  0
  2 12  1  0
 12 13  1  0
 13 14  2  0
 14 15  1  0
 15 16  1  0
 16 17  1  0
 17 18  1  0
 18 19  1  0
 19 20  1  0
 15 21  1  0
 11  7  1  0
 21 12  2  0
 20 16  1  0
  3 22  1  0
  4 23  1  0
  8 24  1  0
  9 25  1  0
 11 26  1  0
 13 27  1  0
 14 28  1  0
 16 29  1  0
 17 30  1  0
 17 31  1  0
 18 32  1  0
 18 33  1  0
 19 34  1  0
 19 35  1  0
 20 36  1  0
 20 37  1  0
M  END
>  <Energy>  (421) 
102.16607197999355

>  <compound_id>  (421) 
13498

>  <target_id>  (421) 
1

>  <reference_id>  (421) 
7

>  <inspiration_ids>  (421) 
[122, 7]

>  <energy_score>  (421) 
-8.37442905553587

>  <distance_score>  (421) 
12.095900317801652

>  <path>  (421) 
/opt/xchem-fragalysis-2/maxwin/BulkDock/SCRATCH/511023/C13498-P7/C13498-P7.minimised.mol

>  <scratch_subdir>  (421) 
/opt/xchem-fragalysis-2/maxwin/BulkDock/SCRATCH/511023/C13498-P7

>  <fragmenstein_runtime>  (421) 
11.73056936264038

>  <fragmenstein_outcome>  (421) 
too moved

>  <fragmenstein_mode>  (421) 
expansion

>  <fragmenstein_error>  (421) 


$$$$
C27103-P52
     RDKit          3D

 36 40  0  0  0  0  0  0  0  0999 V2000
   -6.9162  -21.1271   32.1340 C   0  0  0  0  0  0  0  0  0  0  0  0
   -7.9349  -22.5107   30.7790 C   0  0  0  0  0  0  0  0  0  0  0  0
   -7.5764  -21.3885   28.9202 C   0  0  0  0  0  0  0  0  0  0  0  0
   -6.4180  -19.7668   28.2611 C   0  0  0  0  0  0  0  0  0  0  0  0
   -5.5021  -18.7021   27.1715 N   0  0  0  0  0  0  0  0  0  0  0  0
   -4.6007  -17.1664   27.4967 C   0  0  0  0  0  0  0  0  0  0  0  0
   -3.0441  -15.7964   26.6577 C   0  0  0  0  0  0  0  0  0  0  0  0
   -2.9097  -14.9352   24.7830 C   0  0  0  0  0  0  0  0  0  0  0  0
   -2.1833  -13.4004   24.8115 N   0  0  0  0  0  0  0  0  0  0  0  0
   -0.7425  -12.8526   23.6798 C   0  0  0  0  0  0  0  0  0  0  0  0
    0.8255  -11.8618   24.4369 C   0  0  0  0  0  0  0  0  0  0  0  0
    1.8249  -11.5473   23.3422 C   0  0  0  0  0  0  0  0  0  0  0  0
    1.7313  -10.8200   22.1726 N   0  0  0  0  0  0  0  0  0  0  0  0
    2.6853  -10.5672   21.1304 C   0  0  0  0  0  0  0  0  0  0  0  0
    2.0106   -9.9034   20.1409 C   0  0  0  0  0  0  0  0  0  0  0  0
    0.5948  -10.0008   20.4108 N   0  0  0  0  0  0  0  0  0  0  0  0
    0.3786  -10.7139   21.6675 C   0  0  0  0  0  0  0  0  0  0  0  0
   -0.4773  -12.3420   22.1168 N   0  0  0  0  0  0  0  0  0  0  0  0
   -2.2591  -13.9938   26.6165 C   0  0  0  0  0  0  0  0  0  0  0  0
   -5.0266  -17.1529   28.9216 N   0  0  0  0  0  0  0  0  0  0  0  0
   -5.8154  -18.3952   29.6337 C   0  0  0  0  0  0  0  0  0  0  0  0
   -6.3389  -19.2460   31.4537 C   0  0  0  0  0  0  0  0  0  0  0  0
   -7.3514  -21.1566   33.1473 H   0  0  0  0  0  0  0  0  0  0  0  0
   -8.6135  -23.3245   31.0007 H   0  0  0  0  0  0  0  0  0  0  0  0
   -8.0530  -21.8239   28.0383 H   0  0  0  0  0  0  0  0  0  0  0  0
   -5.3454  -19.0981   26.2662 H   0  0  0  0  0  0  0  0  0  0  0  0
   -2.2428  -16.5625   26.6375 H   0  0  0  0  0  0  0  0  0  0  0  0
   -3.7036  -14.6365   24.1061 H   0  0  0  0  0  0  0  0  0  0  0  0
   -2.2929  -15.7463   24.5138 H   0  0  0  0  0  0  0  0  0  0  0  0
    1.0644  -12.2214   25.4120 H   0  0  0  0  0  0  0  0  0  0  0  0
    2.8596  -11.9160   23.4076 H   0  0  0  0  0  0  0  0  0  0  0  0
    3.7050  -10.9063   21.2253 H   0  0  0  0  0  0  0  0  0  0  0  0
    2.3545   -9.4648   19.2161 H   0  0  0  0  0  0  0  0  0  0  0  0
   -2.6213  -13.2741   27.2886 H   0  0  0  0  0  0  0  0  0  0  0  0
   -1.3548  -13.8278   27.1777 H   0  0  0  0  0  0  0  0  0  0  0  0
   -5.9974  -18.5615   32.2561 H   0  0  0  0  0  0  0  0  0  0  0  0
  1  2  2  0
  2  3  1  0
  3  4  2  0
  4  5  1  0
  5  6  1  0
  6  7  1  0
  7  8  1  0
  8  9  1  0
  9 10  1  0
 10 11  1  0
 11 12  2  0
 12 13  1  0
 13 14  1  0
 14 15  2  0
 15 16  1  0
 16 17  2  0
 17 18  1  0
  9 19  1  0
  6 20  2  0
 20 21  1  0
 21 22  2  0
 22  1  1  0
 21  4  1  0
 19  7  1  0
 18 10  2  0
 17 13  1  0
  1 23  1  0
  2 24  1  0
  3 25  1  0
  5 26  1  0
  7 27  1  0
  8 28  1  0
  8 29  1  0
 11 30  1  0
 12 31  1  0
 14 32  1  0
 15 33  1  0
 19 34  1  0
 19 35  1  0
 22 36  1  0
M  END
>  <Energy>  (422) 
2192.1360093399394

>  <compound_id>  (422) 
27103

>  <target_id>  (422) 
1

>  <reference_id>  (422) 
52

>  <inspiration_ids>  (422) 
[52, 106]

>  <energy_score>  (422) 
2116.84319867864

>  <distance_score>  (422) 
13.698449888068843

>  <path>  (422) 
/opt/xchem-fragalysis-2/maxwin/BulkDock/SCRATCH/511023/C27103-P52/C27103-P52.minimised.mol

>  <scratch_subdir>  (422) 
/opt/xchem-fragalysis-2/maxwin/BulkDock/SCRATCH/511023/C27103-P52

>  <fragmenstein_runtime>  (422) 
12.322871923446655

>  <fragmenstein_outcome>  (422) 
too moved

>  <fragmenstein_mode>  (422) 
expansion

>  <fragmenstein_error>  (422) 


$$$$
C27103-P106
     RDKit          3D

 36 40  0  0  0  0  0  0  0  0999 V2000
    1.1157  -19.7937   28.6091 C   0  0  0  0  0  0  0  0  0  0  0  0
    1.0970  -20.4962   27.4075 C   0  0  0  0  0  0  0  0  0  0  0  0
    1.9590  -20.1410   26.3540 C   0  0  0  0  0  0  0  0  0  0  0  0
    2.8281  -19.0458   26.5458 C   0  0  0  0  0  0  0  0  0  0  0  0
    3.7962  -18.4367   25.7487 N   0  0  0  0  0  0  0  0  0  0  0  0
    4.3374  -17.3309   26.4082 C   0  0  0  0  0  0  0  0  0  0  0  0
    5.6463  -16.2955   25.8677 C   0  0  0  0  0  0  0  0  0  0  0  0
    5.5061  -14.7179   25.8073 C   0  0  0  0  0  0  0  0  0  0  0  0
    6.5113  -14.7413   24.7455 N   0  0  0  0  0  0  0  0  0  0  0  0
    6.8830  -13.6572   23.8757 C   0  0  0  0  0  0  0  0  0  0  0  0
    7.7005  -13.9979   22.6189 C   0  0  0  0  0  0  0  0  0  0  0  0
    8.1862  -13.0119   21.8454 C   0  0  0  0  0  0  0  0  0  0  0  0
    7.9148  -11.7019   22.1762 N   0  0  0  0  0  0  0  0  0  0  0  0
    8.2815  -10.5364   21.5469 C   0  0  0  0  0  0  0  0  0  0  0  0
    7.7129   -9.5371   22.2955 C   0  0  0  0  0  0  0  0  0  0  0  0
    7.0213  -10.0641   23.3634 N   0  0  0  0  0  0  0  0  0  0  0  0
    7.1528  -11.3839   23.2949 C   0  0  0  0  0  0  0  0  0  0  0  0
    6.6663  -12.3737   24.1427 N   0  0  0  0  0  0  0  0  0  0  0  0
    5.9980  -16.0565   24.3402 C   0  0  0  0  0  0  0  0  0  0  0  0
    3.7591  -17.2578   27.6080 N   0  0  0  0  0  0  0  0  0  0  0  0
    2.8375  -18.3031   27.7165 C   0  0  0  0  0  0  0  0  0  0  0  0
    1.9774  -18.6925   28.7717 C   0  0  0  0  0  0  0  0  0  0  0  0
    0.4597  -20.0886   29.4242 H   0  0  0  0  0  0  0  0  0  0  0  0
    0.4204  -21.3388   27.2850 H   0  0  0  0  0  0  0  0  0  0  0  0
    1.9548  -20.6979   25.4225 H   0  0  0  0  0  0  0  0  0  0  0  0
    4.0533  -18.7383   24.8220 H   0  0  0  0  0  0  0  0  0  0  0  0
    6.5216  -16.6161   26.4535 H   0  0  0  0  0  0  0  0  0  0  0  0
    5.8370  -14.1780   26.6957 H   0  0  0  0  0  0  0  0  0  0  0  0
    4.5464  -14.3619   25.4392 H   0  0  0  0  0  0  0  0  0  0  0  0
    7.8875  -15.0427   22.4123 H   0  0  0  0  0  0  0  0  0  0  0  0
    8.7800  -13.1949   20.9598 H   0  0  0  0  0  0  0  0  0  0  0  0
    8.8857  -10.5280   20.6518 H   0  0  0  0  0  0  0  0  0  0  0  0
    7.7600   -8.4684   22.1328 H   0  0  0  0  0  0  0  0  0  0  0  0
    5.1517  -15.9827   23.6494 H   0  0  0  0  0  0  0  0  0  0  0  0
    6.7756  -16.7083   23.9360 H   0  0  0  0  0  0  0  0  0  0  0  0
    1.9897  -18.1449   29.7069 H   0  0  0  0  0  0  0  0  0  0  0  0
  1  2  2  0
  2  3  1  0
  3  4  2  0
  4  5  1  0
  5  6  1  0
  6  7  1  0
  7  8  1  0
  8  9  1  0
  9 10  1  0
 10 11  1  0
 11 12  2  0
 12 13  1  0
 13 14  1  0
 14 15  2  0
 15 16  1  0
 16 17  2  0
 17 18  1  0
  9 19  1  0
  6 20  2  0
 20 21  1  0
 21 22  2  0
 22  1  1  0
 21  4  1  0
 19  7  1  0
 18 10  2  0
 17 13  1  0
  1 23  1  0
  2 24  1  0
  3 25  1  0
  5 26  1  0
  7 27  1  0
  8 28  1  0
  8 29  1  0
 11 30  1  0
 12 31  1  0
 14 32  1  0
 15 33  1  0
 19 34  1  0
 19 35  1  0
 22 36  1  0
M  END
>  <Energy>  (423) 
60.734731949603798

>  <compound_id>  (423) 
27103

>  <target_id>  (423) 
1

>  <reference_id>  (423) 
106

>  <inspiration_ids>  (423) 
[52, 106]

>  <energy_score>  (423) 
-14.558078711711687

>  <distance_score>  (423) 
15.104732259695362

>  <path>  (423) 
/opt/xchem-fragalysis-2/maxwin/BulkDock/SCRATCH/511023/C27103-P106/C27103-P106.minimised.mol

>  <scratch_subdir>  (423) 
/opt/xchem-fragalysis-2/maxwin/BulkDock/SCRATCH/511023/C27103-P106

>  <fragmenstein_runtime>  (423) 
20.73176908493042

>  <fragmenstein_outcome>  (423) 
too moved

>  <fragmenstein_mode>  (423) 
expansion

>  <fragmenstein_error>  (423) 


$$$$
C27104-P52
     RDKit          3D

 31 34  0  0  0  0  0  0  0  0999 V2000
   -0.8303   -6.2530   27.0575 O   0  0  0  0  0  0  0  0  0  0  0  0
   -1.1749   -6.2560   25.9069 C   0  0  0  0  0  0  0  0  0  0  0  0
   -2.3813   -6.7926   25.2746 N   0  0  0  0  0  0  0  0  0  0  0  0
   -3.4887   -7.5729   25.8278 C   0  0  0  0  0  0  0  0  0  0  0  0
   -4.4771   -8.0440   24.9355 C   0  0  0  0  0  0  0  0  0  0  0  0
   -5.5597   -8.8900   25.3150 C   0  0  0  0  0  0  0  0  0  0  0  0
   -5.6964   -9.2737   26.6510 C   0  0  0  0  0  0  0  0  0  0  0  0
   -6.6853  -10.0081   27.2735 N   0  0  0  0  0  0  0  0  0  0  0  0
   -6.3331  -10.0370   28.5378 C   0  0  0  0  0  0  0  0  0  0  0  0
   -5.1456   -9.3854   28.7335 N   0  0  0  0  0  0  0  0  0  0  0  0
   -4.7176   -8.8481   27.5412 C   0  0  0  0  0  0  0  0  0  0  0  0
   -3.6042   -8.0215   27.1665 C   0  0  0  0  0  0  0  0  0  0  0  0
   -0.0497   -5.6545   24.8718 C   0  0  0  0  0  0  0  0  0  0  0  0
    1.3673   -5.6035   25.4544 C   0  0  0  0  0  0  0  0  0  0  0  0
    2.3708   -5.2237   24.6462 C   0  0  0  0  0  0  0  0  0  0  0  0
    2.0842   -4.8792   23.3397 N   0  0  0  0  0  0  0  0  0  0  0  0
    2.9322   -4.4852   22.3324 C   0  0  0  0  0  0  0  0  0  0  0  0
    2.1179   -4.2631   21.2507 C   0  0  0  0  0  0  0  0  0  0  0  0
    0.8011   -4.5080   21.5752 N   0  0  0  0  0  0  0  0  0  0  0  0
    0.7750   -4.8926   22.8439 C   0  0  0  0  0  0  0  0  0  0  0  0
   -0.3099   -5.2848   23.6345 N   0  0  0  0  0  0  0  0  0  0  0  0
   -2.3790   -6.5422   24.2881 H   0  0  0  0  0  0  0  0  0  0  0  0
   -4.4289   -7.7472   23.8881 H   0  0  0  0  0  0  0  0  0  0  0  0
   -6.2998   -9.2005   24.5849 H   0  0  0  0  0  0  0  0  0  0  0  0
   -6.8743  -10.5117   29.3447 H   0  0  0  0  0  0  0  0  0  0  0  0
   -4.6931   -9.2536   29.6210 H   0  0  0  0  0  0  0  0  0  0  0  0
   -2.8675   -7.7336   27.9121 H   0  0  0  0  0  0  0  0  0  0  0  0
    1.5133   -5.8915   26.4884 H   0  0  0  0  0  0  0  0  0  0  0  0
    3.4025   -5.1740   24.9687 H   0  0  0  0  0  0  0  0  0  0  0  0
    3.9991   -4.4003   22.4726 H   0  0  0  0  0  0  0  0  0  0  0  0
    2.3970   -3.9383   20.2563 H   0  0  0  0  0  0  0  0  0  0  0  0
  1  2  2  0
  2  3  1  0
  3  4  1  0
  4  5  2  0
  5  6  1  0
  6  7  2  0
  7  8  1  0
  8  9  2  0
  9 10  1  0
 10 11  1  0
 11 12  2  0
  2 13  1  0
 13 14  1  0
 14 15  2  0
 15 16  1  0
 16 17  1  0
 17 18  2  0
 18 19  1  0
 19 20  2  0
 20 21  1  0
 12  4  1  0
 21 13  2  0
 11  7  1  0
 20 16  1  0
  3 22  1  0
  5 23  1  0
  6 24  1  0
  9 25  1  0
 10 26  1  0
 12 27  1  0
 14 28  1  0
 15 29  1  0
 17 30  1  0
 18 31  1  0
M  END
>  <Energy>  (424) 
67.917357795135345

>  <compound_id>  (424) 
27104

>  <target_id>  (424) 
1

>  <reference_id>  (424) 
52

>  <inspiration_ids>  (424) 
[52, 106]

>  <energy_score>  (424) 
-32.08688645805205

>  <distance_score>  (424) 
15.583585625764547

>  <path>  (424) 
/opt/xchem-fragalysis-2/maxwin/BulkDock/SCRATCH/511023/C27104-P52/C27104-P52.minimised.mol

>  <scratch_subdir>  (424) 
/opt/xchem-fragalysis-2/maxwin/BulkDock/SCRATCH/511023/C27104-P52

>  <fragmenstein_runtime>  (424) 
13.971804857254028

>  <fragmenstein_outcome>  (424) 
too moved

>  <fragmenstein_mode>  (424) 
expansion

>  <fragmenstein_error>  (424) 


$$$$
C27104-P106
     RDKit          3D

 31 34  0  0  0  0  0  0  0  0999 V2000
   -5.1269  -12.1119   24.2154 O   0  0  0  0  0  0  0  0  0  0  0  0
   -3.9471  -11.7682   24.4608 C   0  0  0  0  0  0  0  0  0  0  0  0
   -2.5655  -12.7013   25.2743 N   0  0  0  0  0  0  0  0  0  0  0  0
   -2.4331  -14.4603   25.8349 C   0  0  0  0  0  0  0  0  0  0  0  0
   -2.0656  -15.1513   27.1960 C   0  0  0  0  0  0  0  0  0  0  0  0
   -2.5488  -16.6541   27.4514 C   0  0  0  0  0  0  0  0  0  0  0  0
   -3.1699  -17.5752   26.5419 C   0  0  0  0  0  0  0  0  0  0  0  0
   -3.9007  -18.7133   26.7988 N   0  0  0  0  0  0  0  0  0  0  0  0
   -4.6365  -18.8885   25.7283 C   0  0  0  0  0  0  0  0  0  0  0  0
   -4.4237  -17.8997   24.8067 N   0  0  0  0  0  0  0  0  0  0  0  0
   -3.4185  -17.0551   25.2704 C   0  0  0  0  0  0  0  0  0  0  0  0
   -2.9268  -15.6695   24.7983 C   0  0  0  0  0  0  0  0  0  0  0  0
   -3.5764   -9.9689   23.6480 C   0  0  0  0  0  0  0  0  0  0  0  0
   -3.0420   -8.5594   24.2723 C   0  0  0  0  0  0  0  0  0  0  0  0
   -2.3270   -7.6811   23.5374 C   0  0  0  0  0  0  0  0  0  0  0  0
   -2.0199   -7.9773   22.2327 N   0  0  0  0  0  0  0  0  0  0  0  0
   -1.1687   -7.3472   21.3571 C   0  0  0  0  0  0  0  0  0  0  0  0
   -1.1882   -8.1274   20.2291 C   0  0  0  0  0  0  0  0  0  0  0  0
   -2.0477   -9.1914   20.3997 N   0  0  0  0  0  0  0  0  0  0  0  0
   -2.5544   -9.1014   21.6214 C   0  0  0  0  0  0  0  0  0  0  0  0
   -3.3466  -10.0260   22.3224 N   0  0  0  0  0  0  0  0  0  0  0  0
   -1.7973  -12.1367   25.3943 H   0  0  0  0  0  0  0  0  0  0  0  0
   -1.7915  -14.6887   28.1189 H   0  0  0  0  0  0  0  0  0  0  0  0
   -3.1681  -16.6441   28.3650 H   0  0  0  0  0  0  0  0  0  0  0  0
   -5.3534  -19.6830   25.5719 H   0  0  0  0  0  0  0  0  0  0  0  0
   -4.9530  -17.7602   23.9573 H   0  0  0  0  0  0  0  0  0  0  0  0
   -3.3116  -15.3732   23.8171 H   0  0  0  0  0  0  0  0  0  0  0  0
   -3.2162   -8.2649   25.2935 H   0  0  0  0  0  0  0  0  0  0  0  0
   -1.9339   -6.7565   23.9428 H   0  0  0  0  0  0  0  0  0  0  0  0
   -0.6282   -6.4485   21.6140 H   0  0  0  0  0  0  0  0  0  0  0  0
   -0.6415   -7.9922   19.3048 H   0  0  0  0  0  0  0  0  0  0  0  0
  1  2  2  0
  2  3  1  0
  3  4  1  0
  4  5  2  0
  5  6  1  0
  6  7  2  0
  7  8  1  0
  8  9  2  0
  9 10  1  0
 10 11  1  0
 11 12  2  0
  2 13  1  0
 13 14  1  0
 14 15  2  0
 15 16  1  0
 16 17  1  0
 17 18  2  0
 18 19  1  0
 19 20  2  0
 20 21  1  0
 12  4  1  0
 21 13  2  0
 11  7  1  0
 20 16  1  0
  3 22  1  0
  5 23  1  0
  6 24  1  0
  9 25  1  0
 10 26  1  0
 12 27  1  0
 14 28  1  0
 15 29  1  0
 17 30  1  0
 18 31  1  0
M  END
>  <Energy>  (425) 
382.7713545644155

>  <compound_id>  (425) 
27104

>  <target_id>  (425) 
1

>  <reference_id>  (425) 
106

>  <inspiration_ids>  (425) 
[52, 106]

>  <energy_score>  (425) 
282.76711031123216

>  <distance_score>  (425) 
15.947090788266774

>  <path>  (425) 
/opt/xchem-fragalysis-2/maxwin/BulkDock/SCRATCH/511023/C27104-P106/C27104-P106.minimised.mol

>  <scratch_subdir>  (425) 
/opt/xchem-fragalysis-2/maxwin/BulkDock/SCRATCH/511023/C27104-P106

>  <fragmenstein_runtime>  (425) 
17.153940439224243

>  <fragmenstein_outcome>  (425) 
too moved

>  <fragmenstein_mode>  (425) 
expansion

>  <fragmenstein_error>  (425) 


$$$$
C27105-P52
     RDKit          3D

 34 37  0  0  0  0  0  0  0  0999 V2000
   -8.4491  -14.5284   23.5342 C   0  0  0  0  0  0  0  0  0  0  0  0
   -7.6233  -15.6366   23.1371 N   0  0  0  0  0  0  0  0  0  0  0  0
   -7.7849  -16.8841   23.6833 C   0  0  0  0  0  0  0  0  0  0  0  0
   -6.9803  -17.7542   23.1333 N   0  0  0  0  0  0  0  0  0  0  0  0
   -6.2502  -17.0275   22.2176 C   0  0  0  0  0  0  0  0  0  0  0  0
   -5.2419  -17.4600   21.3524 C   0  0  0  0  0  0  0  0  0  0  0  0
   -4.5647  -16.5170   20.5311 C   0  0  0  0  0  0  0  0  0  0  0  0
   -4.8409  -15.1305   20.5093 C   0  0  0  0  0  0  0  0  0  0  0  0
   -3.8380  -14.2651   19.8524 N   0  0  0  0  0  0  0  0  0  0  0  0
   -3.9377  -12.8930   19.3359 C   0  0  0  0  0  0  0  0  0  0  0  0
   -4.8857  -12.1575   19.2455 O   0  0  0  0  0  0  0  0  0  0  0  0
   -2.4828  -12.1618   18.8965 C   0  0  0  0  0  0  0  0  0  0  0  0
   -2.5898  -10.6463   18.6608 C   0  0  0  0  0  0  0  0  0  0  0  0
   -1.4638   -9.9435   18.4414 C   0  0  0  0  0  0  0  0  0  0  0  0
   -0.2531  -10.6053   18.4063 N   0  0  0  0  0  0  0  0  0  0  0  0
    1.0126  -10.1114   18.1941 C   0  0  0  0  0  0  0  0  0  0  0  0
    1.8324  -11.2091   18.2458 C   0  0  0  0  0  0  0  0  0  0  0  0
    1.0977  -12.3501   18.4914 N   0  0  0  0  0  0  0  0  0  0  0  0
   -0.1751  -11.9895   18.5894 C   0  0  0  0  0  0  0  0  0  0  0  0
   -1.3130  -12.7702   18.8486 N   0  0  0  0  0  0  0  0  0  0  0  0
   -5.9269  -14.7122   21.3343 C   0  0  0  0  0  0  0  0  0  0  0  0
   -6.6050  -15.6743   22.1955 C   0  0  0  0  0  0  0  0  0  0  0  0
   -8.1677  -13.6382   22.9674 H   0  0  0  0  0  0  0  0  0  0  0  0
   -9.4931  -14.7788   23.3276 H   0  0  0  0  0  0  0  0  0  0  0  0
   -8.3042  -14.3483   24.6026 H   0  0  0  0  0  0  0  0  0  0  0  0
   -8.5044  -17.0952   24.4616 H   0  0  0  0  0  0  0  0  0  0  0  0
   -4.9515  -18.5058   21.3401 H   0  0  0  0  0  0  0  0  0  0  0  0
   -3.7405  -16.8936   19.9238 H   0  0  0  0  0  0  0  0  0  0  0  0
   -2.8911  -14.6119   19.6982 H   0  0  0  0  0  0  0  0  0  0  0  0
   -3.5729  -10.1933   18.6907 H   0  0  0  0  0  0  0  0  0  0  0  0
   -1.4571   -8.8739   18.2755 H   0  0  0  0  0  0  0  0  0  0  0  0
    1.2052   -9.0622   18.0264 H   0  0  0  0  0  0  0  0  0  0  0  0
    2.9070  -11.2524   18.1233 H   0  0  0  0  0  0  0  0  0  0  0  0
   -6.1902  -13.6601   21.3901 H   0  0  0  0  0  0  0  0  0  0  0  0
  1  2  1  0
  2  3  1  0
  3  4  2  0
  4  5  1  0
  5  6  2  0
  6  7  1  0
  7  8  2  0
  8  9  1  0
  9 10  1  0
 10 11  2  0
 10 12  1  0
 12 13  1  0
 13 14  2  0
 14 15  1  0
 15 16  1  0
 16 17  2  0
 17 18  1  0
 18 19  2  0
 19 20  1  0
  8 21  1  0
 21 22  2  0
 22  2  1  0
 22  5  1  0
 20 12  2  0
 19 15  1  0
  1 23  1  0
  1 24  1  0
  1 25  1  0
  3 26  1  0
  6 27  1  0
  7 28  1  0
  9 29  1  0
 13 30  1  0
 14 31  1  0
 16 32  1  0
 17 33  1  0
 21 34  1  0
M  END
>  <Energy>  (426) 
85.996564416254813

>  <compound_id>  (426) 
27105

>  <target_id>  (426) 
1

>  <reference_id>  (426) 
52

>  <inspiration_ids>  (426) 
[52, 106]

>  <energy_score>  (426) 
0.16113750548680628

>  <distance_score>  (426) 
15.486421632078903

>  <path>  (426) 
/opt/xchem-fragalysis-2/maxwin/BulkDock/SCRATCH/511023/C27105-P52/C27105-P52.minimised.mol

>  <scratch_subdir>  (426) 
/opt/xchem-fragalysis-2/maxwin/BulkDock/SCRATCH/511023/C27105-P52

>  <fragmenstein_runtime>  (426) 
14.233305931091309

>  <fragmenstein_outcome>  (426) 
too moved

>  <fragmenstein_mode>  (426) 
expansion

>  <fragmenstein_error>  (426) 


$$$$
C27105-P106
     RDKit          3D

 34 37  0  0  0  0  0  0  0  0999 V2000
   -2.5514  -18.7854   26.1070 C   0  0  0  0  0  0  0  0  0  0  0  0
   -3.0875  -17.6276   26.7752 N   0  0  0  0  0  0  0  0  0  0  0  0
   -4.2200  -17.8021   27.5463 C   0  0  0  0  0  0  0  0  0  0  0  0
   -4.2035  -17.0367   28.6094 N   0  0  0  0  0  0  0  0  0  0  0  0
   -3.1144  -16.2015   28.3764 C   0  0  0  0  0  0  0  0  0  0  0  0
   -2.4357  -15.0613   28.9881 C   0  0  0  0  0  0  0  0  0  0  0  0
   -0.8502  -14.9446   28.3763 C   0  0  0  0  0  0  0  0  0  0  0  0
   -0.3365  -14.1732   27.2096 C   0  0  0  0  0  0  0  0  0  0  0  0
    1.5238  -13.9571   26.5074 N   0  0  0  0  0  0  0  0  0  0  0  0
    2.2318  -13.2310   24.9124 C   0  0  0  0  0  0  0  0  0  0  0  0
    1.7029  -12.6550   24.0135 O   0  0  0  0  0  0  0  0  0  0  0  0
    4.0819  -13.5531   24.4654 C   0  0  0  0  0  0  0  0  0  0  0  0
    4.1744  -13.9128   22.9675 C   0  0  0  0  0  0  0  0  0  0  0  0
    5.1817  -13.4228   22.2269 C   0  0  0  0  0  0  0  0  0  0  0  0
    6.1989  -12.7575   22.8657 N   0  0  0  0  0  0  0  0  0  0  0  0
    7.2520  -12.0420   22.3526 C   0  0  0  0  0  0  0  0  0  0  0  0
    7.9216  -11.5694   23.4516 C   0  0  0  0  0  0  0  0  0  0  0  0
    7.3160  -12.0041   24.6109 N   0  0  0  0  0  0  0  0  0  0  0  0
    6.2789  -12.7538   24.2574 C   0  0  0  0  0  0  0  0  0  0  0  0
    5.2577  -13.2982   25.0597 N   0  0  0  0  0  0  0  0  0  0  0  0
   -1.8382  -14.9112   26.6816 C   0  0  0  0  0  0  0  0  0  0  0  0
   -2.3852  -16.4895   27.2341 C   0  0  0  0  0  0  0  0  0  0  0  0
   -2.8208  -19.6885   26.6642 H   0  0  0  0  0  0  0  0  0  0  0  0
   -2.9783  -18.8391   25.1075 H   0  0  0  0  0  0  0  0  0  0  0  0
   -1.4635  -18.7129   26.0902 H   0  0  0  0  0  0  0  0  0  0  0  0
   -4.9706  -18.5193   27.2636 H   0  0  0  0  0  0  0  0  0  0  0  0
   -2.6622  -15.2003   30.0250 H   0  0  0  0  0  0  0  0  0  0  0  0
   -0.1056  -15.3392   29.0968 H   0  0  0  0  0  0  0  0  0  0  0  0
    2.2789  -14.3058   27.0964 H   0  0  0  0  0  0  0  0  0  0  0  0
    3.4169  -14.5547   22.5503 H   0  0  0  0  0  0  0  0  0  0  0  0
    5.2532  -13.5644   21.1567 H   0  0  0  0  0  0  0  0  0  0  0  0
    7.4112  -11.9258   21.2908 H   0  0  0  0  0  0  0  0  0  0  0  0
    8.8069  -10.9475   23.4829 H   0  0  0  0  0  0  0  0  0  0  0  0
   -2.0682  -14.7404   25.6043 H   0  0  0  0  0  0  0  0  0  0  0  0
  1  2  1  0
  2  3  1  0
  3  4  2  0
  4  5  1  0
  5  6  2  0
  6  7  1  0
  7  8  2  0
  8  9  1  0
  9 10  1  0
 10 11  2  0
 10 12  1  0
 12 13  1  0
 13 14  2  0
 14 15  1  0
 15 16  1  0
 16 17  2  0
 17 18  1  0
 18 19  2  0
 19 20  1  0
  8 21  1  0
 21 22  2  0
 22  2  1  0
 22  5  1  0
 20 12  2  0
 19 15  1  0
  1 23  1  0
  1 24  1  0
  1 25  1  0
  3 26  1  0
  6 27  1  0
  7 28  1  0
  9 29  1  0
 13 30  1  0
 14 31  1  0
 16 32  1  0
 17 33  1  0
 21 34  1  0
M  END
>  <Energy>  (427) 
617.91576532078795

>  <compound_id>  (427) 
27105

>  <target_id>  (427) 
1

>  <reference_id>  (427) 
106

>  <inspiration_ids>  (427) 
[52, 106]

>  <energy_score>  (427) 
532.0803384100238

>  <distance_score>  (427) 
14.099882729094775

>  <path>  (427) 
/opt/xchem-fragalysis-2/maxwin/BulkDock/SCRATCH/511023/C27105-P106/C27105-P106.minimised.mol

>  <scratch_subdir>  (427) 
/opt/xchem-fragalysis-2/maxwin/BulkDock/SCRATCH/511023/C27105-P106

>  <fragmenstein_runtime>  (427) 
16.92874240875244

>  <fragmenstein_outcome>  (427) 
too moved

>  <fragmenstein_mode>  (427) 
expansion

>  <fragmenstein_error>  (427) 


$$$$
C27106-P52
     RDKit          3D

 34 37  0  0  0  0  0  0  0  0999 V2000
    0.4943   -9.3685   28.0544 O   0  0  0  0  0  0  0  0  0  0  0  0
    0.8516   -9.5649   26.9561 C   0  0  0  0  0  0  0  0  0  0  0  0
   -0.0135  -11.1391   26.1203 N   0  0  0  0  0  0  0  0  0  0  0  0
   -1.3912  -12.6964   26.9740 C   0  0  0  0  0  0  0  0  0  0  0  0
   -2.8045  -12.9134   28.4874 C   0  0  0  0  0  0  0  0  0  0  0  0
   -3.3349  -14.1762   28.9361 N   0  0  0  0  0  0  0  0  0  0  0  0
   -4.7384  -14.6830   29.4276 C   0  0  0  0  0  0  0  0  0  0  0  0
   -5.2376  -15.9720   29.5334 C   0  0  0  0  0  0  0  0  0  0  0  0
   -4.4603  -17.0609   29.5194 F   0  0  0  0  0  0  0  0  0  0  0  0
   -6.5675  -16.0709   29.1765 C   0  0  0  0  0  0  0  0  0  0  0  0
   -7.4201  -14.9586   29.0261 C   0  0  0  0  0  0  0  0  0  0  0  0
   -7.0282  -13.6305   29.2487 C   0  0  0  0  0  0  0  0  0  0  0  0
   -5.6670  -13.4542   29.4648 C   0  0  0  0  0  0  0  0  0  0  0  0
   -4.3805  -12.1779   29.0564 N   0  0  0  0  0  0  0  0  0  0  0  0
    2.2379   -8.3743   26.5983 C   0  0  0  0  0  0  0  0  0  0  0  0
    2.7745   -7.9228   28.0289 C   0  0  0  0  0  0  0  0  0  0  0  0
    4.0433   -7.4538   28.3791 C   0  0  0  0  0  0  0  0  0  0  0  0
    4.9910   -7.2380   27.4272 N   0  0  0  0  0  0  0  0  0  0  0  0
    6.2182   -6.6329   27.3899 C   0  0  0  0  0  0  0  0  0  0  0  0
    6.5291   -6.5562   26.0501 C   0  0  0  0  0  0  0  0  0  0  0  0
    5.5283   -7.1201   25.3032 N   0  0  0  0  0  0  0  0  0  0  0  0
    4.6534   -7.5945   26.1791 C   0  0  0  0  0  0  0  0  0  0  0  0
    3.4617   -8.2792   25.9748 N   0  0  0  0  0  0  0  0  0  0  0  0
    0.4197  -11.2918   25.1883 H   0  0  0  0  0  0  0  0  0  0  0  0
   -2.1054  -13.0855   26.1620 H   0  0  0  0  0  0  0  0  0  0  0  0
   -1.0168  -13.6306   27.3115 H   0  0  0  0  0  0  0  0  0  0  0  0
   -6.8676  -17.0409   28.7935 H   0  0  0  0  0  0  0  0  0  0  0  0
   -8.3943  -15.1097   28.5601 H   0  0  0  0  0  0  0  0  0  0  0  0
   -7.6752  -12.8525   28.9181 H   0  0  0  0  0  0  0  0  0  0  0  0
   -4.6651  -11.2509   28.7516 H   0  0  0  0  0  0  0  0  0  0  0  0
    2.0378   -8.0433   28.8246 H   0  0  0  0  0  0  0  0  0  0  0  0
    4.3040   -7.2155   29.4052 H   0  0  0  0  0  0  0  0  0  0  0  0
    6.7253   -6.2923   28.2805 H   0  0  0  0  0  0  0  0  0  0  0  0
    7.4079   -6.1228   25.5905 H   0  0  0  0  0  0  0  0  0  0  0  0
  1  2  2  0
  2  3  1  0
  3  4  1  0
  4  5  1  0
  5  6  2  0
  6  7  1  0
  7  8  2  0
  8  9  1  0
  8 10  1  0
 10 11  2  0
 11 12  1  0
 12 13  2  0
 13 14  1  0
  2 15  1  0
 15 16  1  0
 16 17  2  0
 17 18  1  0
 18 19  1  0
 19 20  2  0
 20 21  1  0
 21 22  2  0
 22 23  1  0
 14  5  1  0
 23 15  2  0
 13  7  1  0
 22 18  1  0
  3 24  1  0
  4 25  1  0
  4 26  1  0
 10 27  1  0
 11 28  1  0
 12 29  1  0
 14 30  1  0
 16 31  1  0
 17 32  1  0
 19 33  1  0
 20 34  1  0
M  END
>  <Energy>  (428) 
885.55073158873756

>  <compound_id>  (428) 
27106

>  <target_id>  (428) 
1

>  <reference_id>  (428) 
52

>  <inspiration_ids>  (428) 
[52, 106]

>  <energy_score>  (428) 
790.798040645529

>  <distance_score>  (428) 
13.985261429866114

>  <path>  (428) 
/opt/xchem-fragalysis-2/maxwin/BulkDock/SCRATCH/511023/C27106-P52/C27106-P52.minimised.mol

>  <scratch_subdir>  (428) 
/opt/xchem-fragalysis-2/maxwin/BulkDock/SCRATCH/511023/C27106-P52

>  <fragmenstein_runtime>  (428) 
13.56437373161316

>  <fragmenstein_outcome>  (428) 
too moved

>  <fragmenstein_mode>  (428) 
expansion

>  <fragmenstein_error>  (428) 


$$$$
C27106-P106
     RDKit          3D

 34 37  0  0  0  0  0  0  0  0999 V2000
    4.2216  -16.7279   21.2200 O   0  0  0  0  0  0  0  0  0  0  0  0
    3.3801  -15.8886   21.4108 C   0  0  0  0  0  0  0  0  0  0  0  0
    1.9542  -16.0234   21.7699 N   0  0  0  0  0  0  0  0  0  0  0  0
    1.0888  -17.2397   21.9094 C   0  0  0  0  0  0  0  0  0  0  0  0
    0.0255  -17.5122   23.0465 C   0  0  0  0  0  0  0  0  0  0  0  0
   -1.2686  -17.1763   23.1008 N   0  0  0  0  0  0  0  0  0  0  0  0
   -1.8899  -18.0077   24.0572 C   0  0  0  0  0  0  0  0  0  0  0  0
   -3.2233  -18.1108   24.5205 C   0  0  0  0  0  0  0  0  0  0  0  0
   -4.1735  -17.3083   24.0235 F   0  0  0  0  0  0  0  0  0  0  0  0
   -3.5738  -19.0485   25.5087 C   0  0  0  0  0  0  0  0  0  0  0  0
   -2.6059  -19.8880   26.0532 C   0  0  0  0  0  0  0  0  0  0  0  0
   -1.2734  -19.8102   25.6170 C   0  0  0  0  0  0  0  0  0  0  0  0
   -0.9517  -18.8611   24.6233 C   0  0  0  0  0  0  0  0  0  0  0  0
    0.2344  -18.5186   23.9956 N   0  0  0  0  0  0  0  0  0  0  0  0
    3.9948  -14.4070   21.1286 C   0  0  0  0  0  0  0  0  0  0  0  0
    4.9435  -13.8826   22.1972 C   0  0  0  0  0  0  0  0  0  0  0  0
    5.6543  -12.7745   21.9130 C   0  0  0  0  0  0  0  0  0  0  0  0
    5.4719  -12.1405   20.6946 N   0  0  0  0  0  0  0  0  0  0  0  0
    6.0786  -11.0165   20.1835 C   0  0  0  0  0  0  0  0  0  0  0  0
    5.5038  -10.8321   18.9508 C   0  0  0  0  0  0  0  0  0  0  0  0
    4.5739  -11.8126   18.6977 N   0  0  0  0  0  0  0  0  0  0  0  0
    4.5599  -12.6168   19.7517 C   0  0  0  0  0  0  0  0  0  0  0  0
    3.8337  -13.7814   19.9758 N   0  0  0  0  0  0  0  0  0  0  0  0
    1.5192  -15.0953   21.7686 H   0  0  0  0  0  0  0  0  0  0  0  0
    0.5268  -17.2822   20.9679 H   0  0  0  0  0  0  0  0  0  0  0  0
    1.7757  -18.0951   21.8931 H   0  0  0  0  0  0  0  0  0  0  0  0
   -4.6053  -19.1047   25.8403 H   0  0  0  0  0  0  0  0  0  0  0  0
   -2.8810  -20.6048   26.8234 H   0  0  0  0  0  0  0  0  0  0  0  0
   -0.5128  -20.4580   26.0427 H   0  0  0  0  0  0  0  0  0  0  0  0
    1.1175  -18.9852   24.1392 H   0  0  0  0  0  0  0  0  0  0  0  0
    5.0390  -14.4473   23.1147 H   0  0  0  0  0  0  0  0  0  0  0  0
    6.3767  -12.3478   22.5956 H   0  0  0  0  0  0  0  0  0  0  0  0
    6.8348  -10.4703   20.7264 H   0  0  0  0  0  0  0  0  0  0  0  0
    5.6987  -10.0542   18.2260 H   0  0  0  0  0  0  0  0  0  0  0  0
  1  2  2  0
  2  3  1  0
  3  4  1  0
  4  5  1  0
  5  6  2  0
  6  7  1  0
  7  8  2  0
  8  9  1  0
  8 10  1  0
 10 11  2  0
 11 12  1  0
 12 13  2  0
 13 14  1  0
  2 15  1  0
 15 16  1  0
 16 17  2  0
 17 18  1  0
 18 19  1  0
 19 20  2  0
 20 21  1  0
 21 22  2  0
 22 23  1  0
 14  5  1  0
 23 15  2  0
 13  7  1  0
 22 18  1  0
  3 24  1  0
  4 25  1  0
  4 26  1  0
 10 27  1  0
 11 28  1  0
 12 29  1  0
 14 30  1  0
 16 31  1  0
 17 32  1  0
 19 33  1  0
 20 34  1  0
M  END
>  <Energy>  (429) 
108.41419753782881

>  <compound_id>  (429) 
27106

>  <target_id>  (429) 
1

>  <reference_id>  (429) 
106

>  <inspiration_ids>  (429) 
[52, 106]

>  <energy_score>  (429) 
13.661506594616583

>  <distance_score>  (429) 
14.646015485867485

>  <path>  (429) 
/opt/xchem-fragalysis-2/maxwin/BulkDock/SCRATCH/511023/C27106-P106/C27106-P106.minimised.mol

>  <scratch_subdir>  (429) 
/opt/xchem-fragalysis-2/maxwin/BulkDock/SCRATCH/511023/C27106-P106

>  <fragmenstein_runtime>  (429) 
21.984189748764038

>  <fragmenstein_outcome>  (429) 
too moved

>  <fragmenstein_mode>  (429) 
expansion

>  <fragmenstein_error>  (429) 


$$$$
C27107-P52
     RDKit          3D

 44 48  0  0  0  0  0  0  0  0999 V2000
    3.7420  -14.6593   27.1824 O   0  0  0  0  0  0  0  0  0  0  0  0
    2.9242  -13.8670   26.9063 C   0  0  0  0  0  0  0  0  0  0  0  0
    3.7417  -12.3658   25.9805 C   0  0  0  0  0  0  0  0  0  0  0  0
    4.2381  -12.6013   24.2682 C   0  0  0  0  0  0  0  0  0  0  0  0
    5.2135  -11.8698   23.6644 C   0  0  0  0  0  0  0  0  0  0  0  0
    5.8336  -10.8358   24.3433 N   0  0  0  0  0  0  0  0  0  0  0  0
    6.8230   -9.9830   23.9074 C   0  0  0  0  0  0  0  0  0  0  0  0
    6.9748   -9.0678   24.9166 C   0  0  0  0  0  0  0  0  0  0  0  0
    6.1116   -9.3387   25.9570 N   0  0  0  0  0  0  0  0  0  0  0  0
    5.4593  -10.4611   25.6511 C   0  0  0  0  0  0  0  0  0  0  0  0
    4.4629  -11.2331   26.4682 N   0  0  0  0  0  0  0  0  0  0  0  0
    1.2153  -14.2416   27.2042 N   0  0  0  0  0  0  0  0  0  0  0  0
    0.5927  -15.4573   27.6477 C   0  0  0  0  0  0  0  0  0  0  0  0
   -1.0604  -15.8630   26.8662 C   0  0  0  0  0  0  0  0  0  0  0  0
   -2.1878  -14.3838   27.0036 C   0  0  0  0  0  0  0  0  0  0  0  0
   -2.0563  -13.3327   28.6684 C   0  0  0  0  0  0  0  0  0  0  0  0
   -3.8951  -14.0876   29.3340 C   0  0  0  0  0  0  0  0  0  0  0  0
   -5.1858  -15.1050   29.0916 N   0  0  0  0  0  0  0  0  0  0  0  0
   -6.5046  -15.3003   30.2936 C   0  0  0  0  0  0  0  0  0  0  0  0
   -6.7852  -16.2319   31.6067 C   0  0  0  0  0  0  0  0  0  0  0  0
   -7.0626  -16.0625   32.9913 C   0  0  0  0  0  0  0  0  0  0  0  0
   -6.3566  -15.0648   33.4901 C   0  0  0  0  0  0  0  0  0  0  0  0
   -5.7139  -14.3931   32.4865 C   0  0  0  0  0  0  0  0  0  0  0  0
   -6.2423  -14.2076   30.9669 C   0  0  0  0  0  0  0  0  0  0  0  0
   -5.6786  -13.5761   29.5939 N   0  0  0  0  0  0  0  0  0  0  0  0
    0.0104  -13.8940   28.8532 C   0  0  0  0  0  0  0  0  0  0  0  0
    3.9598  -13.4555   23.7038 H   0  0  0  0  0  0  0  0  0  0  0  0
    5.5600  -12.0847   22.6613 H   0  0  0  0  0  0  0  0  0  0  0  0
    7.2986  -10.1000   22.9452 H   0  0  0  0  0  0  0  0  0  0  0  0
    7.6521   -8.2252   24.9602 H   0  0  0  0  0  0  0  0  0  0  0  0
    1.1738  -15.9637   26.8991 H   0  0  0  0  0  0  0  0  0  0  0  0
    0.7951  -15.8603   28.6463 H   0  0  0  0  0  0  0  0  0  0  0  0
   -1.6111  -16.7800   26.7055 H   0  0  0  0  0  0  0  0  0  0  0  0
   -0.7255  -16.2006   25.8864 H   0  0  0  0  0  0  0  0  0  0  0  0
   -2.2077  -13.6179   26.2359 H   0  0  0  0  0  0  0  0  0  0  0  0
   -3.0948  -14.9834   27.1059 H   0  0  0  0  0  0  0  0  0  0  0  0
   -2.4272  -12.4046   28.3640 H   0  0  0  0  0  0  0  0  0  0  0  0
   -6.1876  -17.1791   31.7307 H   0  0  0  0  0  0  0  0  0  0  0  0
   -7.3525  -16.8968   33.6242 H   0  0  0  0  0  0  0  0  0  0  0  0
   -6.0859  -14.9898   34.5340 H   0  0  0  0  0  0  0  0  0  0  0  0
   -4.7779  -13.9272   32.8105 H   0  0  0  0  0  0  0  0  0  0  0  0
   -5.8230  -12.5866   29.4454 H   0  0  0  0  0  0  0  0  0  0  0  0
    0.3174  -14.4364   29.7507 H   0  0  0  0  0  0  0  0  0  0  0  0
   -0.6202  -14.0700   28.0041 H   0  0  0  0  0  0  0  0  0  0  0  0
  1  2  2  0
  2  3  1  0
  3  4  1  0
  4  5  2  0
  5  6  1  0
  6  7  1  0
  7  8  2  0
  8  9  1  0
  9 10  2  0
 10 11  1  0
  2 12  1  0
 12 13  1  0
 13 14  1  0
 14 15  1  0
 15 16  1  0
 16 17  1  0
 17 18  2  0
 18 19  1  0
 19 20  2  0
 20 21  1  0
 21 22  2  0
 22 23  1  0
 23 24  2  0
 24 25  1  0
 16 26  1  0
 11  3  2  0
 26 12  1  0
 10  6  1  0
 25 17  1  0
 24 19  1  0
  4 27  1  0
  5 28  1  0
  7 29  1  0
  8 30  1  0
 13 31  1  0
 13 32  1  0
 14 33  1  0
 14 34  1  0
 15 35  1  0
 15 36  1  0
 16 37  1  0
 20 38  1  0
 21 39  1  0
 22 40  1  0
 23 41  1  0
 25 42  1  0
 26 43  1  0
 26 44  1  0
M  END
>  <Energy>  (430) 
1289.5049155745676

>  <compound_id>  (430) 
27107

>  <target_id>  (430) 
1

>  <reference_id>  (430) 
52

>  <inspiration_ids>  (430) 
[52, 106]

>  <energy_score>  (430) 
1176.3212771198469

>  <distance_score>  (430) 
13.641428676096709

>  <path>  (430) 
/opt/xchem-fragalysis-2/maxwin/BulkDock/SCRATCH/511023/C27107-P52/C27107-P52.minimised.mol

>  <scratch_subdir>  (430) 
/opt/xchem-fragalysis-2/maxwin/BulkDock/SCRATCH/511023/C27107-P52

>  <fragmenstein_runtime>  (430) 
18.12023615837097

>  <fragmenstein_outcome>  (430) 
too moved

>  <fragmenstein_mode>  (430) 
expansion

>  <fragmenstein_error>  (430) 


$$$$
C27107-P106
     RDKit          3D

 44 48  0  0  0  0  0  0  0  0999 V2000
    0.3804  -12.2407   22.9621 O   0  0  0  0  0  0  0  0  0  0  0  0
   -0.4179  -12.9890   22.4872 C   0  0  0  0  0  0  0  0  0  0  0  0
   -1.2466  -12.1528   20.7842 C   0  0  0  0  0  0  0  0  0  0  0  0
   -0.7950  -10.5024   21.0021 C   0  0  0  0  0  0  0  0  0  0  0  0
   -0.5593   -9.7611   19.9269 C   0  0  0  0  0  0  0  0  0  0  0  0
   -0.8967  -10.3154   18.7310 N   0  0  0  0  0  0  0  0  0  0  0  0
   -0.5669   -9.8598   17.4820 C   0  0  0  0  0  0  0  0  0  0  0  0
   -1.0857  -10.7935   16.6294 C   0  0  0  0  0  0  0  0  0  0  0  0
   -1.7428  -11.7845   17.3277 N   0  0  0  0  0  0  0  0  0  0  0  0
   -1.6387  -11.5133   18.6230 C   0  0  0  0  0  0  0  0  0  0  0  0
   -2.0036  -12.3537   19.7267 N   0  0  0  0  0  0  0  0  0  0  0  0
   -1.2789  -14.7852   23.1410 N   0  0  0  0  0  0  0  0  0  0  0  0
   -1.0691  -15.2995   24.3822 C   0  0  0  0  0  0  0  0  0  0  0  0
   -2.1278  -15.1201   25.9874 C   0  0  0  0  0  0  0  0  0  0  0  0
   -2.7543  -16.9809   26.1531 C   0  0  0  0  0  0  0  0  0  0  0  0
   -4.0318  -17.0822   25.3124 C   0  0  0  0  0  0  0  0  0  0  0  0
   -5.3792  -18.3429   26.5974 C   0  0  0  0  0  0  0  0  0  0  0  0
   -6.9967  -19.0294   26.8558 N   0  0  0  0  0  0  0  0  0  0  0  0
   -8.2709  -19.3149   28.3154 C   0  0  0  0  0  0  0  0  0  0  0  0
   -9.8420  -20.3214   29.2124 C   0  0  0  0  0  0  0  0  0  0  0  0
  -10.1149  -20.3517   31.1287 C   0  0  0  0  0  0  0  0  0  0  0  0
   -9.0469  -19.2317   32.2785 C   0  0  0  0  0  0  0  0  0  0  0  0
   -7.5707  -18.0877   31.2565 C   0  0  0  0  0  0  0  0  0  0  0  0
   -7.2532  -18.3244   29.3733 C   0  0  0  0  0  0  0  0  0  0  0  0
   -5.9368  -18.0252   28.3054 N   0  0  0  0  0  0  0  0  0  0  0  0
   -3.0618  -15.3128   24.2582 C   0  0  0  0  0  0  0  0  0  0  0  0
   -0.4834  -10.1786   21.9824 H   0  0  0  0  0  0  0  0  0  0  0  0
   -0.1024   -8.7817   19.9556 H   0  0  0  0  0  0  0  0  0  0  0  0
    0.0002   -8.9552   17.3212 H   0  0  0  0  0  0  0  0  0  0  0  0
   -1.0372  -10.8153   15.5485 H   0  0  0  0  0  0  0  0  0  0  0  0
   -1.1499  -14.2530   24.7513 H   0  0  0  0  0  0  0  0  0  0  0  0
   -0.1041  -14.6728   24.4525 H   0  0  0  0  0  0  0  0  0  0  0  0
   -2.6021  -14.1529   25.9944 H   0  0  0  0  0  0  0  0  0  0  0  0
   -1.7227  -15.0632   27.0386 H   0  0  0  0  0  0  0  0  0  0  0  0
   -2.0335  -17.7441   25.8396 H   0  0  0  0  0  0  0  0  0  0  0  0
   -2.9206  -17.1438   27.2157 H   0  0  0  0  0  0  0  0  0  0  0  0
   -3.9960  -17.8776   24.5657 H   0  0  0  0  0  0  0  0  0  0  0  0
  -10.3291  -21.1245   28.6153 H   0  0  0  0  0  0  0  0  0  0  0  0
  -10.8381  -21.0405   31.5654 H   0  0  0  0  0  0  0  0  0  0  0  0
   -9.0954  -19.2078   33.3557 H   0  0  0  0  0  0  0  0  0  0  0  0
   -6.8096  -17.5325   31.8236 H   0  0  0  0  0  0  0  0  0  0  0  0
   -5.4263  -17.3268   28.7884 H   0  0  0  0  0  0  0  0  0  0  0  0
   -3.9060  -14.8519   23.7241 H   0  0  0  0  0  0  0  0  0  0  0  0
   -3.3912  -15.9648   23.4545 H   0  0  0  0  0  0  0  0  0  0  0  0
  1  2  2  0
  2  3  1  0
  3  4  1  0
  4  5  2  0
  5  6  1  0
  6  7  1  0
  7  8  2  0
  8  9  1  0
  9 10  2  0
 10 11  1  0
  2 12  1  0
 12 13  1  0
 13 14  1  0
 14 15  1  0
 15 16  1  0
 16 17  1  0
 17 18  2  0
 18 19  1  0
 19 20  2  0
 20 21  1  0
 21 22  2  0
 22 23  1  0
 23 24  2  0
 24 25  1  0
 16 26  1  0
 11  3  2  0
 26 12  1  0
 10  6  1  0
 25 17  1  0
 24 19  1  0
  4 27  1  0
  5 28  1  0
  7 29  1  0
  8 30  1  0
 13 31  1  0
 13 32  1  0
 14 33  1  0
 14 34  1  0
 15 35  1  0
 15 36  1  0
 16 37  1  0
 20 38  1  0
 21 39  1  0
 22 40  1  0
 23 41  1  0
 25 42  1  0
 26 43  1  0
 26 44  1  0
M  END
>  <Energy>  (431) 
2316.5216777818155

>  <compound_id>  (431) 
27107

>  <target_id>  (431) 
1

>  <reference_id>  (431) 
106

>  <inspiration_ids>  (431) 
[52, 106]

>  <energy_score>  (431) 
2203.3380393271145

>  <distance_score>  (431) 
14.04544279277423

>  <path>  (431) 
/opt/xchem-fragalysis-2/maxwin/BulkDock/SCRATCH/511023/C27107-P106/C27107-P106.minimised.mol

>  <scratch_subdir>  (431) 
/opt/xchem-fragalysis-2/maxwin/BulkDock/SCRATCH/511023/C27107-P106

>  <fragmenstein_runtime>  (431) 
29.32397174835205

>  <fragmenstein_outcome>  (431) 
too moved

>  <fragmenstein_mode>  (431) 
expansion

>  <fragmenstein_error>  (431) 


$$$$
C27108-P52
     RDKit          3D

 35 38  0  0  0  0  0  0  0  0999 V2000
   -3.1503  -18.4246   35.7116 C   0  0  0  0  0  0  0  0  0  0  0  0
   -3.1427  -18.6124   34.2899 N   0  0  0  0  0  0  0  0  0  0  0  0
   -4.2237  -18.3984   33.4861 C   0  0  0  0  0  0  0  0  0  0  0  0
   -3.9768  -18.8225   32.2717 N   0  0  0  0  0  0  0  0  0  0  0  0
   -2.6273  -19.0284   32.2269 C   0  0  0  0  0  0  0  0  0  0  0  0
   -1.7742  -19.1232   31.1150 C   0  0  0  0  0  0  0  0  0  0  0  0
   -0.4458  -18.6638   31.2874 C   0  0  0  0  0  0  0  0  0  0  0  0
    0.3928  -17.9015   30.1045 C   0  0  0  0  0  0  0  0  0  0  0  0
    0.5702  -16.2708   29.7653 N   0  0  0  0  0  0  0  0  0  0  0  0
    0.9290  -15.3951   28.5168 C   0  0  0  0  0  0  0  0  0  0  0  0
    0.8464  -15.8962   26.9926 C   0  0  0  0  0  0  0  0  0  0  0  0
    2.0836  -15.7825   26.3990 C   0  0  0  0  0  0  0  0  0  0  0  0
    2.5858  -14.6987   26.8484 N   0  0  0  0  0  0  0  0  0  0  0  0
    3.6750  -14.0211   26.6963 C   0  0  0  0  0  0  0  0  0  0  0  0
    3.4402  -12.7658   26.2430 C   0  0  0  0  0  0  0  0  0  0  0  0
    2.0905  -12.6270   26.5659 N   0  0  0  0  0  0  0  0  0  0  0  0
    1.6632  -13.7635   27.1752 C   0  0  0  0  0  0  0  0  0  0  0  0
    1.2036  -14.1387   28.4866 N   0  0  0  0  0  0  0  0  0  0  0  0
    0.0908  -19.0117   32.5404 C   0  0  0  0  0  0  0  0  0  0  0  0
   -0.7234  -19.1984   33.6910 C   0  0  0  0  0  0  0  0  0  0  0  0
   -2.0844  -18.9750   33.4970 C   0  0  0  0  0  0  0  0  0  0  0  0
   -4.1726  -18.2700   36.0668 H   0  0  0  0  0  0  0  0  0  0  0  0
   -2.7265  -19.3128   36.1875 H   0  0  0  0  0  0  0  0  0  0  0  0
   -2.5427  -17.5467   35.9463 H   0  0  0  0  0  0  0  0  0  0  0  0
   -5.1737  -18.0213   33.8443 H   0  0  0  0  0  0  0  0  0  0  0  0
   -2.2373  -19.2304   30.1424 H   0  0  0  0  0  0  0  0  0  0  0  0
    1.3979  -18.3081   30.2387 H   0  0  0  0  0  0  0  0  0  0  0  0
   -0.0971  -18.3267   29.2342 H   0  0  0  0  0  0  0  0  0  0  0  0
    0.3795  -15.6474   30.5259 H   0  0  0  0  0  0  0  0  0  0  0  0
   -0.0957  -16.3145   26.6222 H   0  0  0  0  0  0  0  0  0  0  0  0
    2.6472  -16.0846   25.5276 H   0  0  0  0  0  0  0  0  0  0  0  0
    4.2040  -14.3320   27.5614 H   0  0  0  0  0  0  0  0  0  0  0  0
    4.0596  -11.9206   26.0433 H   0  0  0  0  0  0  0  0  0  0  0  0
    1.1679  -19.0115   32.6967 H   0  0  0  0  0  0  0  0  0  0  0  0
   -0.2786  -19.2714   34.6777 H   0  0  0  0  0  0  0  0  0  0  0  0
  1  2  1  0
  2  3  1  0
  3  4  2  0
  4  5  1  0
  5  6  2  0
  6  7  1  0
  7  8  1  0
  8  9  1  0
  9 10  1  0
 10 11  1  0
 11 12  2  0
 12 13  1  0
 13 14  1  0
 14 15  2  0
 15 16  1  0
 16 17  2  0
 17 18  1  0
  7 19  2  0
 19 20  1  0
 20 21  2  0
 21  2  1  0
 21  5  1  0
 18 10  2  0
 17 13  1  0
  1 22  1  0
  1 23  1  0
  1 24  1  0
  3 25  1  0
  6 26  1  0
  8 27  1  0
  8 28  1  0
  9 29  1  0
 11 30  1  0
 12 31  1  0
 14 32  1  0
 15 33  1  0
 19 34  1  0
 20 35  1  0
M  END
>  <Energy>  (432) 
235.81826520629264

>  <compound_id>  (432) 
27108

>  <target_id>  (432) 
1

>  <reference_id>  (432) 
52

>  <inspiration_ids>  (432) 
[52, 106]

>  <energy_score>  (432) 
198.70513362638377

>  <distance_score>  (432) 
16.41827864578813

>  <path>  (432) 
/opt/xchem-fragalysis-2/maxwin/BulkDock/SCRATCH/511023/C27108-P52/C27108-P52.minimised.mol

>  <scratch_subdir>  (432) 
/opt/xchem-fragalysis-2/maxwin/BulkDock/SCRATCH/511023/C27108-P52

>  <fragmenstein_runtime>  (432) 
15.205820083618164

>  <fragmenstein_outcome>  (432) 
too moved

>  <fragmenstein_mode>  (432) 
expansion

>  <fragmenstein_error>  (432) 


$$$$
C27108-P106
     RDKit          3D

 35 38  0  0  0  0  0  0  0  0999 V2000
   -4.3367  -18.3777   25.7319 C   0  0  0  0  0  0  0  0  0  0  0  0
   -3.5339  -17.3319   25.1359 N   0  0  0  0  0  0  0  0  0  0  0  0
   -3.6925  -16.7940   23.8837 C   0  0  0  0  0  0  0  0  0  0  0  0
   -3.0206  -15.6615   23.6870 N   0  0  0  0  0  0  0  0  0  0  0  0
   -2.2899  -15.3319   24.8599 C   0  0  0  0  0  0  0  0  0  0  0  0
   -1.3141  -13.8698   25.3398 C   0  0  0  0  0  0  0  0  0  0  0  0
    0.0511  -13.4871   26.5790 C   0  0  0  0  0  0  0  0  0  0  0  0
    1.2976  -11.8774   26.7965 C   0  0  0  0  0  0  0  0  0  0  0  0
    2.5515  -10.9660   28.0998 N   0  0  0  0  0  0  0  0  0  0  0  0
    4.2749  -10.3710   28.2364 C   0  0  0  0  0  0  0  0  0  0  0  0
    5.5379  -11.3406   28.3003 C   0  0  0  0  0  0  0  0  0  0  0  0
    6.7484  -10.9851   27.8147 C   0  0  0  0  0  0  0  0  0  0  0  0
    6.9362   -9.7197   27.3050 N   0  0  0  0  0  0  0  0  0  0  0  0
    7.9844   -9.1435   26.6277 C   0  0  0  0  0  0  0  0  0  0  0  0
    7.5389   -7.8902   26.2768 C   0  0  0  0  0  0  0  0  0  0  0  0
    6.2597   -7.6903   26.7395 N   0  0  0  0  0  0  0  0  0  0  0  0
    5.9182   -8.8029   27.3752 C   0  0  0  0  0  0  0  0  0  0  0  0
    4.6785   -9.1678   27.8555 N   0  0  0  0  0  0  0  0  0  0  0  0
   -0.9373  -14.7139   27.6328 C   0  0  0  0  0  0  0  0  0  0  0  0
   -2.1177  -15.9946   27.3150 C   0  0  0  0  0  0  0  0  0  0  0  0
   -2.6402  -16.5286   25.7567 C   0  0  0  0  0  0  0  0  0  0  0  0
   -5.3903  -18.1137   25.6158 H   0  0  0  0  0  0  0  0  0  0  0  0
   -4.0842  -18.4642   26.7912 H   0  0  0  0  0  0  0  0  0  0  0  0
   -4.1072  -19.3120   25.2148 H   0  0  0  0  0  0  0  0  0  0  0  0
   -4.3467  -17.2469   23.1500 H   0  0  0  0  0  0  0  0  0  0  0  0
   -2.0207  -13.0103   25.3515 H   0  0  0  0  0  0  0  0  0  0  0  0
    0.7390  -11.2233   27.4896 H   0  0  0  0  0  0  0  0  0  0  0  0
    1.7998  -12.8589   26.7374 H   0  0  0  0  0  0  0  0  0  0  0  0
    1.9924  -10.1459   28.3954 H   0  0  0  0  0  0  0  0  0  0  0  0
    5.3344  -12.3492   28.6036 H   0  0  0  0  0  0  0  0  0  0  0  0
    7.5835  -11.6707   27.7606 H   0  0  0  0  0  0  0  0  0  0  0  0
    8.9115   -9.6669   26.4461 H   0  0  0  0  0  0  0  0  0  0  0  0
    8.0640   -7.1237   25.7215 H   0  0  0  0  0  0  0  0  0  0  0  0
   -0.5663  -14.9765   28.6356 H   0  0  0  0  0  0  0  0  0  0  0  0
   -2.7713  -16.4067   28.0737 H   0  0  0  0  0  0  0  0  0  0  0  0
  1  2  1  0
  2  3  1  0
  3  4  2  0
  4  5  1  0
  5  6  2  0
  6  7  1  0
  7  8  1  0
  8  9  1  0
  9 10  1  0
 10 11  1  0
 11 12  2  0
 12 13  1  0
 13 14  1  0
 14 15  2  0
 15 16  1  0
 16 17  2  0
 17 18  1  0
  7 19  2  0
 19 20  1  0
 20 21  2  0
 21  2  1  0
 21  5  1  0
 18 10  2  0
 17 13  1  0
  1 22  1  0
  1 23  1  0
  1 24  1  0
  3 25  1  0
  6 26  1  0
  8 27  1  0
  8 28  1  0
  9 29  1  0
 11 30  1  0
 12 31  1  0
 14 32  1  0
 15 33  1  0
 19 34  1  0
 20 35  1  0
M  END
>  <Energy>  (433) 
716.7839230920514

>  <compound_id>  (433) 
27108

>  <target_id>  (433) 
1

>  <reference_id>  (433) 
106

>  <inspiration_ids>  (433) 
[52, 106]

>  <energy_score>  (433) 
679.670791512149

>  <distance_score>  (433) 
14.52233934838156

>  <path>  (433) 
/opt/xchem-fragalysis-2/maxwin/BulkDock/SCRATCH/511023/C27108-P106/C27108-P106.minimised.mol

>  <scratch_subdir>  (433) 
/opt/xchem-fragalysis-2/maxwin/BulkDock/SCRATCH/511023/C27108-P106

>  <fragmenstein_runtime>  (433) 
14.553799152374268

>  <fragmenstein_outcome>  (433) 
too moved

>  <fragmenstein_mode>  (433) 
expansion

>  <fragmenstein_error>  (433) 


$$$$
C27109-P52
     RDKit          3D

 37 40  0  0  0  0  0  0  0  0999 V2000
    3.1990  -11.1145   21.9586 C   0  0  0  0  0  0  0  0  0  0  0  0
    3.6789  -12.4482   22.1978 N   0  0  0  0  0  0  0  0  0  0  0  0
    4.2590  -12.8539   23.3565 C   0  0  0  0  0  0  0  0  0  0  0  0
    5.1540  -13.7859   23.1653 N   0  0  0  0  0  0  0  0  0  0  0  0
    5.2421  -13.8645   21.8181 C   0  0  0  0  0  0  0  0  0  0  0  0
    6.2911  -14.3574   21.0544 C   0  0  0  0  0  0  0  0  0  0  0  0
    6.2391  -14.0777   19.6849 C   0  0  0  0  0  0  0  0  0  0  0  0
    7.5264  -13.9611   18.8836 C   0  0  0  0  0  0  0  0  0  0  0  0
    8.2038  -12.6605   19.0202 N   0  0  0  0  0  0  0  0  0  0  0  0
    8.7343  -11.7635   18.0258 C   0  0  0  0  0  0  0  0  0  0  0  0
    8.6899  -11.8076   16.8311 O   0  0  0  0  0  0  0  0  0  0  0  0
    9.5984  -10.5960   18.5878 C   0  0  0  0  0  0  0  0  0  0  0  0
   11.0603  -10.7105   18.2288 C   0  0  0  0  0  0  0  0  0  0  0  0
   11.8721   -9.7693   18.7278 C   0  0  0  0  0  0  0  0  0  0  0  0
   11.3266   -8.7527   19.4867 N   0  0  0  0  0  0  0  0  0  0  0  0
   11.9489   -7.7151   20.1285 C   0  0  0  0  0  0  0  0  0  0  0  0
   10.9315   -6.9630   20.6554 C   0  0  0  0  0  0  0  0  0  0  0  0
    9.7073   -7.5113   20.3581 N   0  0  0  0  0  0  0  0  0  0  0  0
    9.9513   -8.6337   19.7007 C   0  0  0  0  0  0  0  0  0  0  0  0
    9.0754   -9.6058   19.2662 N   0  0  0  0  0  0  0  0  0  0  0  0
    5.0176  -13.7171   19.0876 C   0  0  0  0  0  0  0  0  0  0  0  0
    3.9180  -13.3242   19.8429 C   0  0  0  0  0  0  0  0  0  0  0  0
    4.1609  -13.2572   21.2066 C   0  0  0  0  0  0  0  0  0  0  0  0
    3.9655  -10.4130   22.3032 H   0  0  0  0  0  0  0  0  0  0  0  0
    2.2520  -10.9375   22.4582 H   0  0  0  0  0  0  0  0  0  0  0  0
    3.1062  -10.9234   20.8861 H   0  0  0  0  0  0  0  0  0  0  0  0
    4.0222  -12.4438   24.3180 H   0  0  0  0  0  0  0  0  0  0  0  0
    7.1947  -14.7095   21.5391 H   0  0  0  0  0  0  0  0  0  0  0  0
    8.2380  -14.7271   19.2116 H   0  0  0  0  0  0  0  0  0  0  0  0
    7.3351  -14.1359   17.8189 H   0  0  0  0  0  0  0  0  0  0  0  0
    8.5035  -12.3511   19.9383 H   0  0  0  0  0  0  0  0  0  0  0  0
   11.3913  -11.5310   17.6045 H   0  0  0  0  0  0  0  0  0  0  0  0
   12.9413   -9.7557   18.5541 H   0  0  0  0  0  0  0  0  0  0  0  0
   13.0236   -7.6017   20.1404 H   0  0  0  0  0  0  0  0  0  0  0  0
   11.0213   -6.0569   21.2402 H   0  0  0  0  0  0  0  0  0  0  0  0
    4.9722  -13.5771   18.0066 H   0  0  0  0  0  0  0  0  0  0  0  0
    3.0558  -12.8747   19.3646 H   0  0  0  0  0  0  0  0  0  0  0  0
  1  2  1  0
  2  3  1  0
  3  4  2  0
  4  5  1  0
  5  6  2  0
  6  7  1  0
  7  8  1  0
  8  9  1  0
  9 10  1  0
 10 11  2  0
 10 12  1  0
 12 13  1  0
 13 14  2  0
 14 15  1  0
 15 16  1  0
 16 17  2  0
 17 18  1  0
 18 19  2  0
 19 20  1  0
  7 21  2  0
 21 22  1  0
 22 23  2  0
 23  2  1  0
 23  5  1  0
 20 12  2  0
 19 15  1  0
  1 24  1  0
  1 25  1  0
  1 26  1  0
  3 27  1  0
  6 28  1  0
  8 29  1  0
  8 30  1  0
  9 31  1  0
 13 32  1  0
 14 33  1  0
 16 34  1  0
 17 35  1  0
 21 36  1  0
 22 37  1  0
M  END
>  <Energy>  (434) 
81.487701585858844

>  <compound_id>  (434) 
27109

>  <target_id>  (434) 
1

>  <reference_id>  (434) 
52

>  <inspiration_ids>  (434) 
[52, 106]

>  <energy_score>  (434) 
5.2924378483153305

>  <distance_score>  (434) 
17.128256096748565

>  <path>  (434) 
/opt/xchem-fragalysis-2/maxwin/BulkDock/SCRATCH/511023/C27109-P52/C27109-P52.minimised.mol

>  <scratch_subdir>  (434) 
/opt/xchem-fragalysis-2/maxwin/BulkDock/SCRATCH/511023/C27109-P52

>  <fragmenstein_runtime>  (434) 
18.813896894454956

>  <fragmenstein_outcome>  (434) 
too moved

>  <fragmenstein_mode>  (434) 
expansion

>  <fragmenstein_error>  (434) 


$$$$
C27109-P106
     RDKit          3D

 37 40  0  0  0  0  0  0  0  0999 V2000
   -3.9447  -21.9527   23.8083 C   0  0  0  0  0  0  0  0  0  0  0  0
   -3.9894  -20.9186   22.8002 N   0  0  0  0  0  0  0  0  0  0  0  0
   -5.1379  -20.4204   22.2482 C   0  0  0  0  0  0  0  0  0  0  0  0
   -4.8910  -19.4517   21.3983 N   0  0  0  0  0  0  0  0  0  0  0  0
   -3.5186  -19.4034   21.2866 C   0  0  0  0  0  0  0  0  0  0  0  0
   -2.6893  -18.6041   20.4365 C   0  0  0  0  0  0  0  0  0  0  0  0
   -1.2613  -18.6838   20.4444 C   0  0  0  0  0  0  0  0  0  0  0  0
   -0.3992  -17.9689   19.3297 C   0  0  0  0  0  0  0  0  0  0  0  0
    0.5696  -16.7963   19.3998 N   0  0  0  0  0  0  0  0  0  0  0  0
    1.7896  -16.4888   18.5918 C   0  0  0  0  0  0  0  0  0  0  0  0
    2.3466  -17.1354   17.7440 O   0  0  0  0  0  0  0  0  0  0  0  0
    2.5393  -15.0513   18.7743 C   0  0  0  0  0  0  0  0  0  0  0  0
    3.8964  -15.1044   19.4664 C   0  0  0  0  0  0  0  0  0  0  0  0
    4.7033  -14.0309   19.3672 C   0  0  0  0  0  0  0  0  0  0  0  0
    4.2774  -12.9213   18.6600 N   0  0  0  0  0  0  0  0  0  0  0  0
    4.9266  -11.7370   18.3998 C   0  0  0  0  0  0  0  0  0  0  0  0
    4.0450  -11.0088   17.6409 C   0  0  0  0  0  0  0  0  0  0  0  0
    2.8803  -11.7154   17.4387 N   0  0  0  0  0  0  0  0  0  0  0  0
    3.0224  -12.8844   18.0494 C   0  0  0  0  0  0  0  0  0  0  0  0
    2.1503  -13.9740   18.1134 N   0  0  0  0  0  0  0  0  0  0  0  0
   -0.7353  -19.6489   21.3296 C   0  0  0  0  0  0  0  0  0  0  0  0
   -1.5306  -20.4514   22.2123 C   0  0  0  0  0  0  0  0  0  0  0  0
   -2.9258  -20.3125   22.1645 C   0  0  0  0  0  0  0  0  0  0  0  0
   -4.7302  -22.6839   23.6049 H   0  0  0  0  0  0  0  0  0  0  0  0
   -4.0766  -21.4847   24.7859 H   0  0  0  0  0  0  0  0  0  0  0  0
   -2.9755  -22.4555   23.7663 H   0  0  0  0  0  0  0  0  0  0  0  0
   -6.1237  -20.7970   22.4795 H   0  0  0  0  0  0  0  0  0  0  0  0
   -3.1870  -17.9203   19.7527 H   0  0  0  0  0  0  0  0  0  0  0  0
    0.1705  -18.7691   18.8386 H   0  0  0  0  0  0  0  0  0  0  0  0
   -1.1163  -17.6388   18.5663 H   0  0  0  0  0  0  0  0  0  0  0  0
    0.4280  -16.0601   20.0824 H   0  0  0  0  0  0  0  0  0  0  0  0
    4.2008  -16.0264   19.9395 H   0  0  0  0  0  0  0  0  0  0  0  0
    5.6967  -13.9992   19.7952 H   0  0  0  0  0  0  0  0  0  0  0  0
    5.9228  -11.5333   18.7625 H   0  0  0  0  0  0  0  0  0  0  0  0
    4.1742  -10.0178   17.2262 H   0  0  0  0  0  0  0  0  0  0  0  0
    0.3423  -19.8209   21.3258 H   0  0  0  0  0  0  0  0  0  0  0  0
   -1.0464  -21.1742   22.8615 H   0  0  0  0  0  0  0  0  0  0  0  0
  1  2  1  0
  2  3  1  0
  3  4  2  0
  4  5  1  0
  5  6  2  0
  6  7  1  0
  7  8  1  0
  8  9  1  0
  9 10  1  0
 10 11  2  0
 10 12  1  0
 12 13  1  0
 13 14  2  0
 14 15  1  0
 15 16  1  0
 16 17  2  0
 17 18  1  0
 18 19  2  0
 19 20  1  0
  7 21  2  0
 21 22  1  0
 22 23  2  0
 23  2  1  0
 23  5  1  0
 20 12  2  0
 19 15  1  0
  1 24  1  0
  1 25  1  0
  1 26  1  0
  3 27  1  0
  6 28  1  0
  8 29  1  0
  8 30  1  0
  9 31  1  0
 13 32  1  0
 14 33  1  0
 16 34  1  0
 17 35  1  0
 21 36  1  0
 22 37  1  0
M  END
>  <Energy>  (435) 
97.844124527640474

>  <compound_id>  (435) 
27109

>  <target_id>  (435) 
1

>  <reference_id>  (435) 
106

>  <inspiration_ids>  (435) 
[52, 106]

>  <energy_score>  (435) 
21.64886079008909

>  <distance_score>  (435) 
14.650539366485564

>  <path>  (435) 
/opt/xchem-fragalysis-2/maxwin/BulkDock/SCRATCH/511023/C27109-P106/C27109-P106.minimised.mol

>  <scratch_subdir>  (435) 
/opt/xchem-fragalysis-2/maxwin/BulkDock/SCRATCH/511023/C27109-P106

>  <fragmenstein_runtime>  (435) 
30.020995378494263

>  <fragmenstein_outcome>  (435) 
too moved

>  <fragmenstein_mode>  (435) 
expansion

>  <fragmenstein_error>  (435) 


$$$$
C27110-P52
     RDKit          3D

 32 36  0  0  0  0  0  0  0  0999 V2000
    7.5445   -9.7322   22.4398 C   0  0  0  0  0  0  0  0  0  0  0  0
    6.9351  -10.6510   21.6224 C   0  0  0  0  0  0  0  0  0  0  0  0
    6.0333  -11.3017   22.4301 N   0  0  0  0  0  0  0  0  0  0  0  0
    5.0898  -12.2584   22.1307 C   0  0  0  0  0  0  0  0  0  0  0  0
    4.2336  -12.7034   23.0745 C   0  0  0  0  0  0  0  0  0  0  0  0
    4.2886  -12.1678   24.5365 C   0  0  0  0  0  0  0  0  0  0  0  0
    2.9258  -12.3199   25.7389 C   0  0  0  0  0  0  0  0  0  0  0  0
    2.1975  -13.0421   26.8210 N   0  0  0  0  0  0  0  0  0  0  0  0
    0.5876  -12.9979   26.3951 C   0  0  0  0  0  0  0  0  0  0  0  0
   -1.2185  -13.4600   27.2982 C   0  0  0  0  0  0  0  0  0  0  0  0
   -2.2768  -14.4032   26.8920 C   0  0  0  0  0  0  0  0  0  0  0  0
   -3.6302  -14.8513   27.6685 C   0  0  0  0  0  0  0  0  0  0  0  0
   -4.1016  -14.4887   29.1497 C   0  0  0  0  0  0  0  0  0  0  0  0
   -5.5683  -14.6476   30.0948 N   0  0  0  0  0  0  0  0  0  0  0  0
   -4.9789  -14.7323   31.7893 C   0  0  0  0  0  0  0  0  0  0  0  0
   -3.4513  -14.3433   31.6945 N   0  0  0  0  0  0  0  0  0  0  0  0
   -3.0111  -13.9061   29.9891 C   0  0  0  0  0  0  0  0  0  0  0  0
   -1.7201  -13.1768   28.9468 C   0  0  0  0  0  0  0  0  0  0  0  0
    0.5916  -11.9981   25.4089 N   0  0  0  0  0  0  0  0  0  0  0  0
    1.7866  -11.8675   25.0040 O   0  0  0  0  0  0  0  0  0  0  0  0
    5.2858  -11.2152   24.7077 N   0  0  0  0  0  0  0  0  0  0  0  0
    6.1389  -10.7909   23.7063 C   0  0  0  0  0  0  0  0  0  0  0  0
    7.0314   -9.8103   23.7121 N   0  0  0  0  0  0  0  0  0  0  0  0
    8.3210   -9.0211   22.1908 H   0  0  0  0  0  0  0  0  0  0  0  0
    7.0530  -10.8909   20.5760 H   0  0  0  0  0  0  0  0  0  0  0  0
    5.0425  -12.5968   21.1024 H   0  0  0  0  0  0  0  0  0  0  0  0
    3.4681  -13.3736   22.7457 H   0  0  0  0  0  0  0  0  0  0  0  0
   -2.1594  -15.3381   26.3266 H   0  0  0  0  0  0  0  0  0  0  0  0
   -4.1227  -15.6136   27.0912 H   0  0  0  0  0  0  0  0  0  0  0  0
   -6.3673  -15.1821   29.7882 H   0  0  0  0  0  0  0  0  0  0  0  0
   -5.6549  -15.0876   32.5524 H   0  0  0  0  0  0  0  0  0  0  0  0
   -2.5696  -12.5495   28.5602 H   0  0  0  0  0  0  0  0  0  0  0  0
  1  2  2  0
  2  3  1  0
  3  4  1  0
  4  5  2  0
  5  6  1  0
  6  7  1  0
  7  8  2  0
  8  9  1  0
  9 10  1  0
 10 11  2  0
 11 12  1  0
 12 13  2  0
 13 14  1  0
 14 15  1  0
 15 16  2  0
 16 17  1  0
 17 18  2  0
  9 19  2  0
 19 20  1  0
  6 21  2  0
 21 22  1  0
 22 23  2  0
 23  1  1  0
 22  3  1  0
 20  7  1  0
 18 10  1  0
 17 13  1  0
  1 24  1  0
  2 25  1  0
  4 26  1  0
  5 27  1  0
 11 28  1  0
 12 29  1  0
 14 30  1  0
 15 31  1  0
 18 32  1  0
M  END
>  <Energy>  (436) 
703.79840055350883

>  <compound_id>  (436) 
27110

>  <target_id>  (436) 
1

>  <reference_id>  (436) 
52

>  <inspiration_ids>  (436) 
[52, 106]

>  <energy_score>  (436) 
603.3636499584959

>  <distance_score>  (436) 
14.025934069205006

>  <path>  (436) 
/opt/xchem-fragalysis-2/maxwin/BulkDock/SCRATCH/511023/C27110-P52/C27110-P52.minimised.mol

>  <scratch_subdir>  (436) 
/opt/xchem-fragalysis-2/maxwin/BulkDock/SCRATCH/511023/C27110-P52

>  <fragmenstein_runtime>  (436) 
10.230497360229492

>  <fragmenstein_outcome>  (436) 
too moved

>  <fragmenstein_mode>  (436) 
expansion

>  <fragmenstein_error>  (436) 


$$$$
C27110-P106
     RDKit          3D

 32 36  0  0  0  0  0  0  0  0999 V2000
   12.0757   -4.6626   17.6342 C   0  0  0  0  0  0  0  0  0  0  0  0
   11.4918   -5.1019   16.4459 C   0  0  0  0  0  0  0  0  0  0  0  0
   10.7414   -6.5531   16.6351 N   0  0  0  0  0  0  0  0  0  0  0  0
    9.6714   -7.9202   15.6484 C   0  0  0  0  0  0  0  0  0  0  0  0
    9.3444   -9.4422   16.5928 C   0  0  0  0  0  0  0  0  0  0  0  0
    8.8868   -9.1546   18.6506 C   0  0  0  0  0  0  0  0  0  0  0  0
    8.0944  -10.2922   19.2735 C   0  0  0  0  0  0  0  0  0  0  0  0
    7.6614  -10.5977   20.5119 N   0  0  0  0  0  0  0  0  0  0  0  0
    6.8836  -11.7981   20.3437 C   0  0  0  0  0  0  0  0  0  0  0  0
    6.1790  -12.7170   21.3823 C   0  0  0  0  0  0  0  0  0  0  0  0
    5.4888  -13.8717   20.9179 C   0  0  0  0  0  0  0  0  0  0  0  0
    5.0173  -14.9165   21.7452 C   0  0  0  0  0  0  0  0  0  0  0  0
    5.2130  -14.7705   23.1094 C   0  0  0  0  0  0  0  0  0  0  0  0
    5.0623  -15.6244   24.1700 N   0  0  0  0  0  0  0  0  0  0  0  0
    5.3501  -14.9373   25.3112 C   0  0  0  0  0  0  0  0  0  0  0  0
    5.8067  -13.7371   25.0308 N   0  0  0  0  0  0  0  0  0  0  0  0
    5.7628  -13.6194   23.6554 C   0  0  0  0  0  0  0  0  0  0  0  0
    6.2513  -12.5864   22.7874 C   0  0  0  0  0  0  0  0  0  0  0  0
    6.8655  -12.1516   19.0412 N   0  0  0  0  0  0  0  0  0  0  0  0
    7.6302  -11.2152   18.3730 O   0  0  0  0  0  0  0  0  0  0  0  0
    9.5597   -7.7868   19.4974 N   0  0  0  0  0  0  0  0  0  0  0  0
   10.1342   -6.1618   18.5357 C   0  0  0  0  0  0  0  0  0  0  0  0
   11.4873   -5.3659   18.9241 N   0  0  0  0  0  0  0  0  0  0  0  0
   12.7593   -3.8446   17.8224 H   0  0  0  0  0  0  0  0  0  0  0  0
   11.3546   -4.6089   15.5016 H   0  0  0  0  0  0  0  0  0  0  0  0
    9.1769   -7.7885   14.7186 H   0  0  0  0  0  0  0  0  0  0  0  0
    8.7404  -10.2588   16.1867 H   0  0  0  0  0  0  0  0  0  0  0  0
    5.3729  -14.0191   19.8422 H   0  0  0  0  0  0  0  0  0  0  0  0
    4.6140  -15.8137   21.2954 H   0  0  0  0  0  0  0  0  0  0  0  0
    4.8019  -16.5970   24.1106 H   0  0  0  0  0  0  0  0  0  0  0  0
    5.2476  -15.3620   26.3011 H   0  0  0  0  0  0  0  0  0  0  0  0
    6.7573  -11.7343   23.2311 H   0  0  0  0  0  0  0  0  0  0  0  0
  1  2  2  0
  2  3  1  0
  3  4  1  0
  4  5  2  0
  5  6  1  0
  6  7  1  0
  7  8  2  0
  8  9  1  0
  9 10  1  0
 10 11  2  0
 11 12  1  0
 12 13  2  0
 13 14  1  0
 14 15  1  0
 15 16  2  0
 16 17  1  0
 17 18  2  0
  9 19  2  0
 19 20  1  0
  6 21  2  0
 21 22  1  0
 22 23  2  0
 23  1  1  0
 22  3  1  0
 20  7  1  0
 18 10  1  0
 17 13  1  0
  1 24  1  0
  2 25  1  0
  4 26  1  0
  5 27  1  0
 11 28  1  0
 12 29  1  0
 14 30  1  0
 15 31  1  0
 18 32  1  0
M  END
>  <Energy>  (437) 
831.91132463909742

>  <compound_id>  (437) 
27110

>  <target_id>  (437) 
1

>  <reference_id>  (437) 
106

>  <inspiration_ids>  (437) 
[52, 106]

>  <energy_score>  (437) 
731.4765740440831

>  <distance_score>  (437) 
15.678840793694093

>  <path>  (437) 
/opt/xchem-fragalysis-2/maxwin/BulkDock/SCRATCH/511023/C27110-P106/C27110-P106.minimised.mol

>  <scratch_subdir>  (437) 
/opt/xchem-fragalysis-2/maxwin/BulkDock/SCRATCH/511023/C27110-P106

>  <fragmenstein_runtime>  (437) 
17.511571407318115

>  <fragmenstein_outcome>  (437) 
too moved

>  <fragmenstein_mode>  (437) 
expansion

>  <fragmenstein_error>  (437) 


$$$$
C27110-P52
     RDKit          3D

 32 36  0  0  0  0  0  0  0  0999 V2000
    7.5445   -9.7322   22.4398 C   0  0  0  0  0  0  0  0  0  0  0  0
    6.9351  -10.6510   21.6224 C   0  0  0  0  0  0  0  0  0  0  0  0
    6.0333  -11.3017   22.4301 N   0  0  0  0  0  0  0  0  0  0  0  0
    5.0898  -12.2584   22.1307 C   0  0  0  0  0  0  0  0  0  0  0  0
    4.2336  -12.7034   23.0745 C   0  0  0  0  0  0  0  0  0  0  0  0
    4.2886  -12.1678   24.5365 C   0  0  0  0  0  0  0  0  0  0  0  0
    2.9258  -12.3199   25.7389 C   0  0  0  0  0  0  0  0  0  0  0  0
    2.1975  -13.0421   26.8210 N   0  0  0  0  0  0  0  0  0  0  0  0
    0.5876  -12.9979   26.3951 C   0  0  0  0  0  0  0  0  0  0  0  0
   -1.2185  -13.4600   27.2982 C   0  0  0  0  0  0  0  0  0  0  0  0
   -2.2768  -14.4032   26.8920 C   0  0  0  0  0  0  0  0  0  0  0  0
   -3.6302  -14.8513   27.6685 C   0  0  0  0  0  0  0  0  0  0  0  0
   -4.1016  -14.4887   29.1497 C   0  0  0  0  0  0  0  0  0  0  0  0
   -5.5683  -14.6476   30.0948 N   0  0  0  0  0  0  0  0  0  0  0  0
   -4.9789  -14.7323   31.7893 C   0  0  0  0  0  0  0  0  0  0  0  0
   -3.4513  -14.3433   31.6945 N   0  0  0  0  0  0  0  0  0  0  0  0
   -3.0111  -13.9061   29.9891 C   0  0  0  0  0  0  0  0  0  0  0  0
   -1.7201  -13.1768   28.9468 C   0  0  0  0  0  0  0  0  0  0  0  0
    0.5916  -11.9981   25.4089 N   0  0  0  0  0  0  0  0  0  0  0  0
    1.7866  -11.8675   25.0040 O   0  0  0  0  0  0  0  0  0  0  0  0
    5.2858  -11.2152   24.7077 N   0  0  0  0  0  0  0  0  0  0  0  0
    6.1389  -10.7909   23.7063 C   0  0  0  0  0  0  0  0  0  0  0  0
    7.0314   -9.8103   23.7121 N   0  0  0  0  0  0  0  0  0  0  0  0
    8.3210   -9.0211   22.1908 H   0  0  0  0  0  0  0  0  0  0  0  0
    7.0530  -10.8909   20.5760 H   0  0  0  0  0  0  0  0  0  0  0  0
    5.0425  -12.5968   21.1024 H   0  0  0  0  0  0  0  0  0  0  0  0
    3.4681  -13.3736   22.7457 H   0  0  0  0  0  0  0  0  0  0  0  0
   -2.1594  -15.3381   26.3266 H   0  0  0  0  0  0  0  0  0  0  0  0
   -4.1227  -15.6136   27.0912 H   0  0  0  0  0  0  0  0  0  0  0  0
   -6.3673  -15.1821   29.7882 H   0  0  0  0  0  0  0  0  0  0  0  0
   -5.6549  -15.0876   32.5524 H   0  0  0  0  0  0  0  0  0  0  0  0
   -2.5696  -12.5495   28.5602 H   0  0  0  0  0  0  0  0  0  0  0  0
  1  2  2  0
  2  3  1  0
  3  4  1  0
  4  5  2  0
  5  6  1  0
  6  7  1  0
  7  8  2  0
  8  9  1  0
  9 10  1  0
 10 11  2  0
 11 12  1  0
 12 13  2  0
 13 14  1  0
 14 15  1  0
 15 16  2  0
 16 17  1  0
 17 18  2  0
  9 19  2  0
 19 20  1  0
  6 21  2  0
 21 22  1  0
 22 23  2  0
 23  1  1  0
 22  3  1  0
 20  7  1  0
 18 10  1  0
 17 13  1  0
  1 24  1  0
  2 25  1  0
  4 26  1  0
  5 27  1  0
 11 28  1  0
 12 29  1  0
 14 30  1  0
 15 31  1  0
 18 32  1  0
M  END
>  <Energy>  (438) 
703.79840055350883

>  <compound_id>  (438) 
27110

>  <target_id>  (438) 
1

>  <reference_id>  (438) 
52

>  <inspiration_ids>  (438) 
[52, 106]

>  <energy_score>  (438) 
603.3636499584959

>  <distance_score>  (438) 
14.025934069205006

>  <path>  (438) 
/opt/xchem-fragalysis-2/maxwin/BulkDock/SCRATCH/511023/C27110-P52/C27110-P52.minimised.mol

>  <scratch_subdir>  (438) 
/opt/xchem-fragalysis-2/maxwin/BulkDock/SCRATCH/511023/C27110-P52

>  <fragmenstein_runtime>  (438) 
10.100264310836792

>  <fragmenstein_outcome>  (438) 
too moved

>  <fragmenstein_mode>  (438) 
expansion

>  <fragmenstein_error>  (438) 


$$$$
C27110-P106
     RDKit          3D

 32 36  0  0  0  0  0  0  0  0999 V2000
   12.0757   -4.6626   17.6342 C   0  0  0  0  0  0  0  0  0  0  0  0
   11.4918   -5.1019   16.4459 C   0  0  0  0  0  0  0  0  0  0  0  0
   10.7414   -6.5531   16.6351 N   0  0  0  0  0  0  0  0  0  0  0  0
    9.6714   -7.9202   15.6484 C   0  0  0  0  0  0  0  0  0  0  0  0
    9.3444   -9.4422   16.5928 C   0  0  0  0  0  0  0  0  0  0  0  0
    8.8868   -9.1546   18.6506 C   0  0  0  0  0  0  0  0  0  0  0  0
    8.0944  -10.2922   19.2735 C   0  0  0  0  0  0  0  0  0  0  0  0
    7.6614  -10.5977   20.5119 N   0  0  0  0  0  0  0  0  0  0  0  0
    6.8836  -11.7981   20.3437 C   0  0  0  0  0  0  0  0  0  0  0  0
    6.1790  -12.7170   21.3823 C   0  0  0  0  0  0  0  0  0  0  0  0
    5.4888  -13.8717   20.9179 C   0  0  0  0  0  0  0  0  0  0  0  0
    5.0173  -14.9165   21.7452 C   0  0  0  0  0  0  0  0  0  0  0  0
    5.2130  -14.7705   23.1094 C   0  0  0  0  0  0  0  0  0  0  0  0
    5.0623  -15.6244   24.1700 N   0  0  0  0  0  0  0  0  0  0  0  0
    5.3501  -14.9373   25.3112 C   0  0  0  0  0  0  0  0  0  0  0  0
    5.8067  -13.7371   25.0308 N   0  0  0  0  0  0  0  0  0  0  0  0
    5.7628  -13.6194   23.6554 C   0  0  0  0  0  0  0  0  0  0  0  0
    6.2513  -12.5864   22.7874 C   0  0  0  0  0  0  0  0  0  0  0  0
    6.8655  -12.1516   19.0412 N   0  0  0  0  0  0  0  0  0  0  0  0
    7.6302  -11.2152   18.3730 O   0  0  0  0  0  0  0  0  0  0  0  0
    9.5597   -7.7868   19.4974 N   0  0  0  0  0  0  0  0  0  0  0  0
   10.1342   -6.1618   18.5357 C   0  0  0  0  0  0  0  0  0  0  0  0
   11.4873   -5.3659   18.9241 N   0  0  0  0  0  0  0  0  0  0  0  0
   12.7593   -3.8446   17.8224 H   0  0  0  0  0  0  0  0  0  0  0  0
   11.3546   -4.6089   15.5016 H   0  0  0  0  0  0  0  0  0  0  0  0
    9.1769   -7.7885   14.7186 H   0  0  0  0  0  0  0  0  0  0  0  0
    8.7404  -10.2588   16.1867 H   0  0  0  0  0  0  0  0  0  0  0  0
    5.3729  -14.0191   19.8422 H   0  0  0  0  0  0  0  0  0  0  0  0
    4.6140  -15.8137   21.2954 H   0  0  0  0  0  0  0  0  0  0  0  0
    4.8019  -16.5970   24.1106 H   0  0  0  0  0  0  0  0  0  0  0  0
    5.2476  -15.3620   26.3011 H   0  0  0  0  0  0  0  0  0  0  0  0
    6.7573  -11.7343   23.2311 H   0  0  0  0  0  0  0  0  0  0  0  0
  1  2  2  0
  2  3  1  0
  3  4  1  0
  4  5  2  0
  5  6  1  0
  6  7  1  0
  7  8  2  0
  8  9  1  0
  9 10  1  0
 10 11  2  0
 11 12  1  0
 12 13  2  0
 13 14  1  0
 14 15  1  0
 15 16  2  0
 16 17  1  0
 17 18  2  0
  9 19  2  0
 19 20  1  0
  6 21  2  0
 21 22  1  0
 22 23  2  0
 23  1  1  0
 22  3  1  0
 20  7  1  0
 18 10  1  0
 17 13  1  0
  1 24  1  0
  2 25  1  0
  4 26  1  0
  5 27  1  0
 11 28  1  0
 12 29  1  0
 14 30  1  0
 15 31  1  0
 18 32  1  0
M  END
>  <Energy>  (439) 
831.91132463909742

>  <compound_id>  (439) 
27110

>  <target_id>  (439) 
1

>  <reference_id>  (439) 
106

>  <inspiration_ids>  (439) 
[52, 106]

>  <energy_score>  (439) 
731.4765740440831

>  <distance_score>  (439) 
15.678840793694093

>  <path>  (439) 
/opt/xchem-fragalysis-2/maxwin/BulkDock/SCRATCH/511023/C27110-P106/C27110-P106.minimised.mol

>  <scratch_subdir>  (439) 
/opt/xchem-fragalysis-2/maxwin/BulkDock/SCRATCH/511023/C27110-P106

>  <fragmenstein_runtime>  (439) 
17.081022024154663

>  <fragmenstein_outcome>  (439) 
too moved

>  <fragmenstein_mode>  (439) 
expansion

>  <fragmenstein_error>  (439) 


$$$$
C27105-P52
     RDKit          3D

 34 37  0  0  0  0  0  0  0  0999 V2000
   -8.4491  -14.5284   23.5342 C   0  0  0  0  0  0  0  0  0  0  0  0
   -7.6233  -15.6366   23.1371 N   0  0  0  0  0  0  0  0  0  0  0  0
   -7.7849  -16.8841   23.6833 C   0  0  0  0  0  0  0  0  0  0  0  0
   -6.9803  -17.7542   23.1333 N   0  0  0  0  0  0  0  0  0  0  0  0
   -6.2502  -17.0275   22.2176 C   0  0  0  0  0  0  0  0  0  0  0  0
   -5.2419  -17.4600   21.3524 C   0  0  0  0  0  0  0  0  0  0  0  0
   -4.5647  -16.5170   20.5311 C   0  0  0  0  0  0  0  0  0  0  0  0
   -4.8409  -15.1305   20.5093 C   0  0  0  0  0  0  0  0  0  0  0  0
   -3.8380  -14.2651   19.8524 N   0  0  0  0  0  0  0  0  0  0  0  0
   -3.9377  -12.8930   19.3359 C   0  0  0  0  0  0  0  0  0  0  0  0
   -4.8857  -12.1575   19.2455 O   0  0  0  0  0  0  0  0  0  0  0  0
   -2.4828  -12.1618   18.8965 C   0  0  0  0  0  0  0  0  0  0  0  0
   -2.5898  -10.6463   18.6608 C   0  0  0  0  0  0  0  0  0  0  0  0
   -1.4638   -9.9435   18.4414 C   0  0  0  0  0  0  0  0  0  0  0  0
   -0.2531  -10.6053   18.4063 N   0  0  0  0  0  0  0  0  0  0  0  0
    1.0126  -10.1114   18.1941 C   0  0  0  0  0  0  0  0  0  0  0  0
    1.8324  -11.2091   18.2458 C   0  0  0  0  0  0  0  0  0  0  0  0
    1.0977  -12.3501   18.4914 N   0  0  0  0  0  0  0  0  0  0  0  0
   -0.1751  -11.9895   18.5894 C   0  0  0  0  0  0  0  0  0  0  0  0
   -1.3130  -12.7702   18.8486 N   0  0  0  0  0  0  0  0  0  0  0  0
   -5.9269  -14.7122   21.3343 C   0  0  0  0  0  0  0  0  0  0  0  0
   -6.6050  -15.6743   22.1955 C   0  0  0  0  0  0  0  0  0  0  0  0
   -8.1677  -13.6382   22.9674 H   0  0  0  0  0  0  0  0  0  0  0  0
   -9.4931  -14.7788   23.3276 H   0  0  0  0  0  0  0  0  0  0  0  0
   -8.3042  -14.3483   24.6026 H   0  0  0  0  0  0  0  0  0  0  0  0
   -8.5044  -17.0952   24.4616 H   0  0  0  0  0  0  0  0  0  0  0  0
   -4.9515  -18.5058   21.3401 H   0  0  0  0  0  0  0  0  0  0  0  0
   -3.7405  -16.8936   19.9238 H   0  0  0  0  0  0  0  0  0  0  0  0
   -2.8911  -14.6119   19.6982 H   0  0  0  0  0  0  0  0  0  0  0  0
   -3.5729  -10.1933   18.6907 H   0  0  0  0  0  0  0  0  0  0  0  0
   -1.4571   -8.8739   18.2755 H   0  0  0  0  0  0  0  0  0  0  0  0
    1.2052   -9.0622   18.0264 H   0  0  0  0  0  0  0  0  0  0  0  0
    2.9070  -11.2524   18.1233 H   0  0  0  0  0  0  0  0  0  0  0  0
   -6.1902  -13.6601   21.3901 H   0  0  0  0  0  0  0  0  0  0  0  0
  1  2  1  0
  2  3  1  0
  3  4  2  0
  4  5  1  0
  5  6  2  0
  6  7  1  0
  7  8  2  0
  8  9  1  0
  9 10  1  0
 10 11  2  0
 10 12  1  0
 12 13  1  0
 13 14  2  0
 14 15  1  0
 15 16  1  0
 16 17  2  0
 17 18  1  0
 18 19  2  0
 19 20  1  0
  8 21  1  0
 21 22  2  0
 22  2  1  0
 22  5  1  0
 20 12  2  0
 19 15  1  0
  1 23  1  0
  1 24  1  0
  1 25  1  0
  3 26  1  0
  6 27  1  0
  7 28  1  0
  9 29  1  0
 13 30  1  0
 14 31  1  0
 16 32  1  0
 17 33  1  0
 21 34  1  0
M  END
>  <Energy>  (440) 
85.996564416254813

>  <compound_id>  (440) 
27105

>  <target_id>  (440) 
1

>  <reference_id>  (440) 
52

>  <inspiration_ids>  (440) 
[52, 106]

>  <energy_score>  (440) 
0.16113750548680628

>  <distance_score>  (440) 
15.486421632078903

>  <path>  (440) 
/opt/xchem-fragalysis-2/maxwin/BulkDock/SCRATCH/511023/C27105-P52/C27105-P52.minimised.mol

>  <scratch_subdir>  (440) 
/opt/xchem-fragalysis-2/maxwin/BulkDock/SCRATCH/511023/C27105-P52

>  <fragmenstein_runtime>  (440) 
14.463695526123047

>  <fragmenstein_outcome>  (440) 
too moved

>  <fragmenstein_mode>  (440) 
expansion

>  <fragmenstein_error>  (440) 


$$$$
C27105-P106
     RDKit          3D

 34 37  0  0  0  0  0  0  0  0999 V2000
   -2.5514  -18.7854   26.1070 C   0  0  0  0  0  0  0  0  0  0  0  0
   -3.0875  -17.6276   26.7752 N   0  0  0  0  0  0  0  0  0  0  0  0
   -4.2200  -17.8021   27.5463 C   0  0  0  0  0  0  0  0  0  0  0  0
   -4.2035  -17.0367   28.6094 N   0  0  0  0  0  0  0  0  0  0  0  0
   -3.1144  -16.2015   28.3764 C   0  0  0  0  0  0  0  0  0  0  0  0
   -2.4357  -15.0613   28.9881 C   0  0  0  0  0  0  0  0  0  0  0  0
   -0.8502  -14.9446   28.3763 C   0  0  0  0  0  0  0  0  0  0  0  0
   -0.3365  -14.1732   27.2096 C   0  0  0  0  0  0  0  0  0  0  0  0
    1.5238  -13.9571   26.5074 N   0  0  0  0  0  0  0  0  0  0  0  0
    2.2318  -13.2310   24.9124 C   0  0  0  0  0  0  0  0  0  0  0  0
    1.7029  -12.6550   24.0135 O   0  0  0  0  0  0  0  0  0  0  0  0
    4.0819  -13.5531   24.4654 C   0  0  0  0  0  0  0  0  0  0  0  0
    4.1744  -13.9128   22.9675 C   0  0  0  0  0  0  0  0  0  0  0  0
    5.1817  -13.4228   22.2269 C   0  0  0  0  0  0  0  0  0  0  0  0
    6.1989  -12.7575   22.8657 N   0  0  0  0  0  0  0  0  0  0  0  0
    7.2520  -12.0420   22.3526 C   0  0  0  0  0  0  0  0  0  0  0  0
    7.9216  -11.5694   23.4516 C   0  0  0  0  0  0  0  0  0  0  0  0
    7.3160  -12.0041   24.6109 N   0  0  0  0  0  0  0  0  0  0  0  0
    6.2789  -12.7538   24.2574 C   0  0  0  0  0  0  0  0  0  0  0  0
    5.2577  -13.2982   25.0597 N   0  0  0  0  0  0  0  0  0  0  0  0
   -1.8382  -14.9112   26.6816 C   0  0  0  0  0  0  0  0  0  0  0  0
   -2.3852  -16.4895   27.2341 C   0  0  0  0  0  0  0  0  0  0  0  0
   -2.8208  -19.6885   26.6642 H   0  0  0  0  0  0  0  0  0  0  0  0
   -2.9783  -18.8391   25.1075 H   0  0  0  0  0  0  0  0  0  0  0  0
   -1.4635  -18.7129   26.0902 H   0  0  0  0  0  0  0  0  0  0  0  0
   -4.9706  -18.5193   27.2636 H   0  0  0  0  0  0  0  0  0  0  0  0
   -2.6622  -15.2003   30.0250 H   0  0  0  0  0  0  0  0  0  0  0  0
   -0.1056  -15.3392   29.0968 H   0  0  0  0  0  0  0  0  0  0  0  0
    2.2789  -14.3058   27.0964 H   0  0  0  0  0  0  0  0  0  0  0  0
    3.4169  -14.5547   22.5503 H   0  0  0  0  0  0  0  0  0  0  0  0
    5.2532  -13.5644   21.1567 H   0  0  0  0  0  0  0  0  0  0  0  0
    7.4112  -11.9258   21.2908 H   0  0  0  0  0  0  0  0  0  0  0  0
    8.8069  -10.9475   23.4829 H   0  0  0  0  0  0  0  0  0  0  0  0
   -2.0682  -14.7404   25.6043 H   0  0  0  0  0  0  0  0  0  0  0  0
  1  2  1  0
  2  3  1  0
  3  4  2  0
  4  5  1  0
  5  6  2  0
  6  7  1  0
  7  8  2  0
  8  9  1  0
  9 10  1  0
 10 11  2  0
 10 12  1  0
 12 13  1  0
 13 14  2  0
 14 15  1  0
 15 16  1  0
 16 17  2  0
 17 18  1  0
 18 19  2  0
 19 20  1  0
  8 21  1  0
 21 22  2  0
 22  2  1  0
 22  5  1  0
 20 12  2  0
 19 15  1  0
  1 23  1  0
  1 24  1  0
  1 25  1  0
  3 26  1  0
  6 27  1  0
  7 28  1  0
  9 29  1  0
 13 30  1  0
 14 31  1  0
 16 32  1  0
 17 33  1  0
 21 34  1  0
M  END
>  <Energy>  (441) 
617.91576532078795

>  <compound_id>  (441) 
27105

>  <target_id>  (441) 
1

>  <reference_id>  (441) 
106

>  <inspiration_ids>  (441) 
[52, 106]

>  <energy_score>  (441) 
532.0803384100238

>  <distance_score>  (441) 
14.099882729094775

>  <path>  (441) 
/opt/xchem-fragalysis-2/maxwin/BulkDock/SCRATCH/511023/C27105-P106/C27105-P106.minimised.mol

>  <scratch_subdir>  (441) 
/opt/xchem-fragalysis-2/maxwin/BulkDock/SCRATCH/511023/C27105-P106

>  <fragmenstein_runtime>  (441) 
17.07510232925415

>  <fragmenstein_outcome>  (441) 
too moved

>  <fragmenstein_mode>  (441) 
expansion

>  <fragmenstein_error>  (441) 


$$$$
C27112-P52
     RDKit          3D

 37 40  0  0  0  0  0  0  0  0999 V2000
   -0.0014  -17.3879   26.3633 C   0  0  0  0  0  0  0  0  0  0  0  0
   -1.2652  -17.3317   25.6136 N   0  0  0  0  0  0  0  0  0  0  0  0
   -2.2382  -16.1654   25.6556 C   0  0  0  0  0  0  0  0  0  0  0  0
   -2.7664  -14.5484   24.6473 C   0  0  0  0  0  0  0  0  0  0  0  0
   -2.5428  -14.3015   23.2519 N   0  0  0  0  0  0  0  0  0  0  0  0
   -1.2527  -13.5198   22.4351 C   0  0  0  0  0  0  0  0  0  0  0  0
   -0.3239  -12.9442   22.9497 O   0  0  0  0  0  0  0  0  0  0  0  0
   -0.9896  -13.5991   20.4871 C   0  0  0  0  0  0  0  0  0  0  0  0
   -0.1629  -14.7316   19.8961 C   0  0  0  0  0  0  0  0  0  0  0  0
    0.6736  -14.4462   18.8717 C   0  0  0  0  0  0  0  0  0  0  0  0
    0.6730  -13.1769   18.3045 N   0  0  0  0  0  0  0  0  0  0  0  0
    1.5253  -12.5919   17.3944 C   0  0  0  0  0  0  0  0  0  0  0  0
    1.0596  -11.3083   17.2386 C   0  0  0  0  0  0  0  0  0  0  0  0
   -0.0685  -11.1073   17.9995 N   0  0  0  0  0  0  0  0  0  0  0  0
   -0.2944  -12.2410   18.6530 C   0  0  0  0  0  0  0  0  0  0  0  0
   -1.1568  -12.4912   19.7099 N   0  0  0  0  0  0  0  0  0  0  0  0
   -2.6690  -16.5235   26.8536 N   0  0  0  0  0  0  0  0  0  0  0  0
   -2.7296  -18.1156   26.8814 C   0  0  0  0  0  0  0  0  0  0  0  0
   -3.5239  -19.0584   27.6008 C   0  0  0  0  0  0  0  0  0  0  0  0
   -3.4585  -20.4081   27.2346 C   0  0  0  0  0  0  0  0  0  0  0  0
   -2.6038  -20.8173   26.2100 C   0  0  0  0  0  0  0  0  0  0  0  0
   -1.8022  -19.8983   25.5069 C   0  0  0  0  0  0  0  0  0  0  0  0
   -1.9540  -18.5482   25.8454 C   0  0  0  0  0  0  0  0  0  0  0  0
    0.7777  -17.6844   25.6560 H   0  0  0  0  0  0  0  0  0  0  0  0
   -0.0178  -18.1695   27.1312 H   0  0  0  0  0  0  0  0  0  0  0  0
    0.2019  -16.4471   26.8616 H   0  0  0  0  0  0  0  0  0  0  0  0
   -3.7858  -14.7523   24.4567 H   0  0  0  0  0  0  0  0  0  0  0  0
   -2.5376  -13.6114   25.1982 H   0  0  0  0  0  0  0  0  0  0  0  0
   -3.2188  -14.6218   22.5750 H   0  0  0  0  0  0  0  0  0  0  0  0
   -0.2623  -15.7125   20.3190 H   0  0  0  0  0  0  0  0  0  0  0  0
    1.3569  -15.1715   18.4523 H   0  0  0  0  0  0  0  0  0  0  0  0
    2.3687  -13.1197   16.9767 H   0  0  0  0  0  0  0  0  0  0  0  0
    1.4638  -10.5190   16.6187 H   0  0  0  0  0  0  0  0  0  0  0  0
   -4.2262  -18.7169   28.3509 H   0  0  0  0  0  0  0  0  0  0  0  0
   -4.0908  -21.1397   27.7240 H   0  0  0  0  0  0  0  0  0  0  0  0
   -2.5536  -21.8728   25.9492 H   0  0  0  0  0  0  0  0  0  0  0  0
   -1.1053  -20.2246   24.7441 H   0  0  0  0  0  0  0  0  0  0  0  0
  1  2  1  0
  2  3  1  0
  3  4  1  0
  4  5  1  0
  5  6  1  0
  6  7  2  0
  6  8  1  0
  8  9  1  0
  9 10  2  0
 10 11  1  0
 11 12  1  0
 12 13  2  0
 13 14  1  0
 14 15  2  0
 15 16  1  0
  3 17  2  0
 17 18  1  0
 18 19  2  0
 19 20  1  0
 20 21  2  0
 21 22  1  0
 22 23  2  0
 23  2  1  0
 16  8  2  0
 23 18  1  0
 15 11  1  0
  1 24  1  0
  1 25  1  0
  1 26  1  0
  4 27  1  0
  4 28  1  0
  5 29  1  0
  9 30  1  0
 10 31  1  0
 12 32  1  0
 13 33  1  0
 19 34  1  0
 20 35  1  0
 21 36  1  0
 22 37  1  0
M  END
>  <Energy>  (442) 
322.21183918448344

>  <compound_id>  (442) 
27112

>  <target_id>  (442) 
1

>  <reference_id>  (442) 
52

>  <inspiration_ids>  (442) 
[52, 106]

>  <energy_score>  (442) 
240.8683336709796

>  <distance_score>  (442) 
15.386154398244065

>  <path>  (442) 
/opt/xchem-fragalysis-2/maxwin/BulkDock/SCRATCH/511023/C27112-P52/C27112-P52.minimised.mol

>  <scratch_subdir>  (442) 
/opt/xchem-fragalysis-2/maxwin/BulkDock/SCRATCH/511023/C27112-P52

>  <fragmenstein_runtime>  (442) 
24.184908390045166

>  <fragmenstein_outcome>  (442) 
too moved

>  <fragmenstein_mode>  (442) 
expansion

>  <fragmenstein_error>  (442) 


$$$$
C27112-P106
     RDKit          3D

 37 40  0  0  0  0  0  0  0  0999 V2000
   -2.8587  -17.5203   26.0039 C   0  0  0  0  0  0  0  0  0  0  0  0
   -2.3996  -16.6640   27.1095 N   0  0  0  0  0  0  0  0  0  0  0  0
   -1.8603  -15.0175   27.0202 C   0  0  0  0  0  0  0  0  0  0  0  0
   -1.1020  -13.7164   25.5779 C   0  0  0  0  0  0  0  0  0  0  0  0
    0.9316  -13.7250   25.5485 N   0  0  0  0  0  0  0  0  0  0  0  0
    2.1223  -12.9850   24.3737 C   0  0  0  0  0  0  0  0  0  0  0  0
    1.8100  -12.2539   23.4692 O   0  0  0  0  0  0  0  0  0  0  0  0
    3.9712  -13.3982   24.2322 C   0  0  0  0  0  0  0  0  0  0  0  0
    4.1121  -14.0008   22.8014 C   0  0  0  0  0  0  0  0  0  0  0  0
    5.0986  -13.5770   21.9919 C   0  0  0  0  0  0  0  0  0  0  0  0
    6.0830  -12.7760   22.5164 N   0  0  0  0  0  0  0  0  0  0  0  0
    7.1031  -12.0883   21.9061 C   0  0  0  0  0  0  0  0  0  0  0  0
    7.7489  -11.4379   22.9268 C   0  0  0  0  0  0  0  0  0  0  0  0
    7.1641  -11.7385   24.1372 N   0  0  0  0  0  0  0  0  0  0  0  0
    6.1609  -12.5723   23.8870 C   0  0  0  0  0  0  0  0  0  0  0  0
    5.1601  -13.0395   24.7534 N   0  0  0  0  0  0  0  0  0  0  0  0
   -1.4868  -15.0923   28.3425 N   0  0  0  0  0  0  0  0  0  0  0  0
   -1.9301  -16.1889   29.1383 C   0  0  0  0  0  0  0  0  0  0  0  0
   -1.7408  -16.5107   30.5014 C   0  0  0  0  0  0  0  0  0  0  0  0
   -2.4178  -17.6038   31.0857 C   0  0  0  0  0  0  0  0  0  0  0  0
   -3.2385  -18.4183   30.3174 C   0  0  0  0  0  0  0  0  0  0  0  0
   -3.3368  -18.1935   28.9446 C   0  0  0  0  0  0  0  0  0  0  0  0
   -2.6482  -17.0811   28.4019 C   0  0  0  0  0  0  0  0  0  0  0  0
   -2.0614  -18.2375   25.8095 H   0  0  0  0  0  0  0  0  0  0  0  0
   -3.7420  -18.0860   26.2958 H   0  0  0  0  0  0  0  0  0  0  0  0
   -3.0994  -16.8878   25.1546 H   0  0  0  0  0  0  0  0  0  0  0  0
   -1.2396  -14.4558   24.7539 H   0  0  0  0  0  0  0  0  0  0  0  0
   -1.7737  -12.8465   25.4634 H   0  0  0  0  0  0  0  0  0  0  0  0
    1.4301  -14.2172   26.2555 H   0  0  0  0  0  0  0  0  0  0  0  0
    3.3438  -14.6840   22.4721 H   0  0  0  0  0  0  0  0  0  0  0  0
    5.1673  -13.8566   20.9495 H   0  0  0  0  0  0  0  0  0  0  0  0
    7.2563  -12.1106   20.8375 H   0  0  0  0  0  0  0  0  0  0  0  0
    8.6034  -10.7765   22.8663 H   0  0  0  0  0  0  0  0  0  0  0  0
   -1.0931  -15.8903   31.1114 H   0  0  0  0  0  0  0  0  0  0  0  0
   -2.3021  -17.7958   32.1497 H   0  0  0  0  0  0  0  0  0  0  0  0
   -3.7777  -19.2450   30.7757 H   0  0  0  0  0  0  0  0  0  0  0  0
   -3.9243  -18.8672   28.3318 H   0  0  0  0  0  0  0  0  0  0  0  0
  1  2  1  0
  2  3  1  0
  3  4  1  0
  4  5  1  0
  5  6  1  0
  6  7  2  0
  6  8  1  0
  8  9  1  0
  9 10  2  0
 10 11  1  0
 11 12  1  0
 12 13  2  0
 13 14  1  0
 14 15  2  0
 15 16  1  0
  3 17  2  0
 17 18  1  0
 18 19  2  0
 19 20  1  0
 20 21  2  0
 21 22  1  0
 22 23  2  0
 23  2  1  0
 16  8  2  0
 23 18  1  0
 15 11  1  0
  1 24  1  0
  1 25  1  0
  1 26  1  0
  4 27  1  0
  4 28  1  0
  5 29  1  0
  9 30  1  0
 10 31  1  0
 12 32  1  0
 13 33  1  0
 19 34  1  0
 20 35  1  0
 21 36  1  0
 22 37  1  0
M  END
>  <Energy>  (443) 
447.34943051022964

>  <compound_id>  (443) 
27112

>  <target_id>  (443) 
1

>  <reference_id>  (443) 
106

>  <inspiration_ids>  (443) 
[52, 106]

>  <energy_score>  (443) 
366.00592499672297

>  <distance_score>  (443) 
13.759522969074022

>  <path>  (443) 
/opt/xchem-fragalysis-2/maxwin/BulkDock/SCRATCH/511023/C27112-P106/C27112-P106.minimised.mol

>  <scratch_subdir>  (443) 
/opt/xchem-fragalysis-2/maxwin/BulkDock/SCRATCH/511023/C27112-P106

>  <fragmenstein_runtime>  (443) 
19.371623039245605

>  <fragmenstein_outcome>  (443) 
too moved

>  <fragmenstein_mode>  (443) 
expansion

>  <fragmenstein_error>  (443) 


$$$$
C27108-P52
     RDKit          3D

 35 38  0  0  0  0  0  0  0  0999 V2000
   -3.1503  -18.4246   35.7116 C   0  0  0  0  0  0  0  0  0  0  0  0
   -3.1427  -18.6124   34.2899 N   0  0  0  0  0  0  0  0  0  0  0  0
   -4.2237  -18.3984   33.4861 C   0  0  0  0  0  0  0  0  0  0  0  0
   -3.9768  -18.8225   32.2717 N   0  0  0  0  0  0  0  0  0  0  0  0
   -2.6273  -19.0284   32.2269 C   0  0  0  0  0  0  0  0  0  0  0  0
   -1.7742  -19.1232   31.1150 C   0  0  0  0  0  0  0  0  0  0  0  0
   -0.4458  -18.6638   31.2874 C   0  0  0  0  0  0  0  0  0  0  0  0
    0.3928  -17.9015   30.1045 C   0  0  0  0  0  0  0  0  0  0  0  0
    0.5702  -16.2708   29.7653 N   0  0  0  0  0  0  0  0  0  0  0  0
    0.9290  -15.3951   28.5168 C   0  0  0  0  0  0  0  0  0  0  0  0
    0.8464  -15.8962   26.9926 C   0  0  0  0  0  0  0  0  0  0  0  0
    2.0836  -15.7825   26.3990 C   0  0  0  0  0  0  0  0  0  0  0  0
    2.5858  -14.6987   26.8484 N   0  0  0  0  0  0  0  0  0  0  0  0
    3.6750  -14.0211   26.6963 C   0  0  0  0  0  0  0  0  0  0  0  0
    3.4402  -12.7658   26.2430 C   0  0  0  0  0  0  0  0  0  0  0  0
    2.0905  -12.6270   26.5659 N   0  0  0  0  0  0  0  0  0  0  0  0
    1.6632  -13.7635   27.1752 C   0  0  0  0  0  0  0  0  0  0  0  0
    1.2036  -14.1387   28.4866 N   0  0  0  0  0  0  0  0  0  0  0  0
    0.0908  -19.0117   32.5404 C   0  0  0  0  0  0  0  0  0  0  0  0
   -0.7234  -19.1984   33.6910 C   0  0  0  0  0  0  0  0  0  0  0  0
   -2.0844  -18.9750   33.4970 C   0  0  0  0  0  0  0  0  0  0  0  0
   -4.1726  -18.2700   36.0668 H   0  0  0  0  0  0  0  0  0  0  0  0
   -2.7265  -19.3128   36.1875 H   0  0  0  0  0  0  0  0  0  0  0  0
   -2.5427  -17.5467   35.9463 H   0  0  0  0  0  0  0  0  0  0  0  0
   -5.1737  -18.0213   33.8443 H   0  0  0  0  0  0  0  0  0  0  0  0
   -2.2373  -19.2304   30.1424 H   0  0  0  0  0  0  0  0  0  0  0  0
    1.3979  -18.3081   30.2387 H   0  0  0  0  0  0  0  0  0  0  0  0
   -0.0971  -18.3267   29.2342 H   0  0  0  0  0  0  0  0  0  0  0  0
    0.3795  -15.6474   30.5259 H   0  0  0  0  0  0  0  0  0  0  0  0
   -0.0957  -16.3145   26.6222 H   0  0  0  0  0  0  0  0  0  0  0  0
    2.6472  -16.0846   25.5276 H   0  0  0  0  0  0  0  0  0  0  0  0
    4.2040  -14.3320   27.5614 H   0  0  0  0  0  0  0  0  0  0  0  0
    4.0596  -11.9206   26.0433 H   0  0  0  0  0  0  0  0  0  0  0  0
    1.1679  -19.0115   32.6967 H   0  0  0  0  0  0  0  0  0  0  0  0
   -0.2786  -19.2714   34.6777 H   0  0  0  0  0  0  0  0  0  0  0  0
  1  2  1  0
  2  3  1  0
  3  4  2  0
  4  5  1  0
  5  6  2  0
  6  7  1  0
  7  8  1  0
  8  9  1  0
  9 10  1  0
 10 11  1  0
 11 12  2  0
 12 13  1  0
 13 14  1  0
 14 15  2  0
 15 16  1  0
 16 17  2  0
 17 18  1  0
  7 19  2  0
 19 20  1  0
 20 21  2  0
 21  2  1  0
 21  5  1  0
 18 10  2  0
 17 13  1  0
  1 22  1  0
  1 23  1  0
  1 24  1  0
  3 25  1  0
  6 26  1  0
  8 27  1  0
  8 28  1  0
  9 29  1  0
 11 30  1  0
 12 31  1  0
 14 32  1  0
 15 33  1  0
 19 34  1  0
 20 35  1  0
M  END
>  <Energy>  (444) 
235.81826520629264

>  <compound_id>  (444) 
27108

>  <target_id>  (444) 
1

>  <reference_id>  (444) 
52

>  <inspiration_ids>  (444) 
[52, 106]

>  <energy_score>  (444) 
198.70513362638377

>  <distance_score>  (444) 
16.41827864578813

>  <path>  (444) 
/opt/xchem-fragalysis-2/maxwin/BulkDock/SCRATCH/511023/C27108-P52/C27108-P52.minimised.mol

>  <scratch_subdir>  (444) 
/opt/xchem-fragalysis-2/maxwin/BulkDock/SCRATCH/511023/C27108-P52

>  <fragmenstein_runtime>  (444) 
13.95460319519043

>  <fragmenstein_outcome>  (444) 
too moved

>  <fragmenstein_mode>  (444) 
expansion

>  <fragmenstein_error>  (444) 


$$$$
C27108-P106
     RDKit          3D

 35 38  0  0  0  0  0  0  0  0999 V2000
   -4.3367  -18.3777   25.7319 C   0  0  0  0  0  0  0  0  0  0  0  0
   -3.5339  -17.3319   25.1359 N   0  0  0  0  0  0  0  0  0  0  0  0
   -3.6925  -16.7940   23.8837 C   0  0  0  0  0  0  0  0  0  0  0  0
   -3.0206  -15.6615   23.6870 N   0  0  0  0  0  0  0  0  0  0  0  0
   -2.2899  -15.3319   24.8599 C   0  0  0  0  0  0  0  0  0  0  0  0
   -1.3141  -13.8698   25.3398 C   0  0  0  0  0  0  0  0  0  0  0  0
    0.0511  -13.4871   26.5790 C   0  0  0  0  0  0  0  0  0  0  0  0
    1.2976  -11.8774   26.7965 C   0  0  0  0  0  0  0  0  0  0  0  0
    2.5515  -10.9660   28.0998 N   0  0  0  0  0  0  0  0  0  0  0  0
    4.2749  -10.3710   28.2364 C   0  0  0  0  0  0  0  0  0  0  0  0
    5.5379  -11.3406   28.3003 C   0  0  0  0  0  0  0  0  0  0  0  0
    6.7484  -10.9851   27.8147 C   0  0  0  0  0  0  0  0  0  0  0  0
    6.9362   -9.7197   27.3050 N   0  0  0  0  0  0  0  0  0  0  0  0
    7.9844   -9.1435   26.6277 C   0  0  0  0  0  0  0  0  0  0  0  0
    7.5389   -7.8902   26.2768 C   0  0  0  0  0  0  0  0  0  0  0  0
    6.2597   -7.6903   26.7395 N   0  0  0  0  0  0  0  0  0  0  0  0
    5.9182   -8.8029   27.3752 C   0  0  0  0  0  0  0  0  0  0  0  0
    4.6785   -9.1678   27.8555 N   0  0  0  0  0  0  0  0  0  0  0  0
   -0.9373  -14.7139   27.6328 C   0  0  0  0  0  0  0  0  0  0  0  0
   -2.1177  -15.9946   27.3150 C   0  0  0  0  0  0  0  0  0  0  0  0
   -2.6402  -16.5286   25.7567 C   0  0  0  0  0  0  0  0  0  0  0  0
   -5.3903  -18.1137   25.6158 H   0  0  0  0  0  0  0  0  0  0  0  0
   -4.0842  -18.4642   26.7912 H   0  0  0  0  0  0  0  0  0  0  0  0
   -4.1072  -19.3120   25.2148 H   0  0  0  0  0  0  0  0  0  0  0  0
   -4.3467  -17.2469   23.1500 H   0  0  0  0  0  0  0  0  0  0  0  0
   -2.0207  -13.0103   25.3515 H   0  0  0  0  0  0  0  0  0  0  0  0
    0.7390  -11.2233   27.4896 H   0  0  0  0  0  0  0  0  0  0  0  0
    1.7998  -12.8589   26.7374 H   0  0  0  0  0  0  0  0  0  0  0  0
    1.9924  -10.1459   28.3954 H   0  0  0  0  0  0  0  0  0  0  0  0
    5.3344  -12.3492   28.6036 H   0  0  0  0  0  0  0  0  0  0  0  0
    7.5835  -11.6707   27.7606 H   0  0  0  0  0  0  0  0  0  0  0  0
    8.9115   -9.6669   26.4461 H   0  0  0  0  0  0  0  0  0  0  0  0
    8.0640   -7.1237   25.7215 H   0  0  0  0  0  0  0  0  0  0  0  0
   -0.5663  -14.9765   28.6356 H   0  0  0  0  0  0  0  0  0  0  0  0
   -2.7713  -16.4067   28.0737 H   0  0  0  0  0  0  0  0  0  0  0  0
  1  2  1  0
  2  3  1  0
  3  4  2  0
  4  5  1  0
  5  6  2  0
  6  7  1  0
  7  8  1  0
  8  9  1  0
  9 10  1  0
 10 11  1  0
 11 12  2  0
 12 13  1  0
 13 14  1  0
 14 15  2  0
 15 16  1  0
 16 17  2  0
 17 18  1  0
  7 19  2  0
 19 20  1  0
 20 21  2  0
 21  2  1  0
 21  5  1  0
 18 10  2  0
 17 13  1  0
  1 22  1  0
  1 23  1  0
  1 24  1  0
  3 25  1  0
  6 26  1  0
  8 27  1  0
  8 28  1  0
  9 29  1  0
 11 30  1  0
 12 31  1  0
 14 32  1  0
 15 33  1  0
 19 34  1  0
 20 35  1  0
M  END
>  <Energy>  (445) 
716.7839230920514

>  <compound_id>  (445) 
27108

>  <target_id>  (445) 
1

>  <reference_id>  (445) 
106

>  <inspiration_ids>  (445) 
[52, 106]

>  <energy_score>  (445) 
679.670791512149

>  <distance_score>  (445) 
14.52233934838156

>  <path>  (445) 
/opt/xchem-fragalysis-2/maxwin/BulkDock/SCRATCH/511023/C27108-P106/C27108-P106.minimised.mol

>  <scratch_subdir>  (445) 
/opt/xchem-fragalysis-2/maxwin/BulkDock/SCRATCH/511023/C27108-P106

>  <fragmenstein_runtime>  (445) 
14.154178857803345

>  <fragmenstein_outcome>  (445) 
too moved

>  <fragmenstein_mode>  (445) 
expansion

>  <fragmenstein_error>  (445) 


$$$$
C27109-P52
     RDKit          3D

 37 40  0  0  0  0  0  0  0  0999 V2000
    3.1990  -11.1145   21.9586 C   0  0  0  0  0  0  0  0  0  0  0  0
    3.6789  -12.4482   22.1978 N   0  0  0  0  0  0  0  0  0  0  0  0
    4.2590  -12.8539   23.3565 C   0  0  0  0  0  0  0  0  0  0  0  0
    5.1540  -13.7859   23.1653 N   0  0  0  0  0  0  0  0  0  0  0  0
    5.2421  -13.8645   21.8181 C   0  0  0  0  0  0  0  0  0  0  0  0
    6.2911  -14.3574   21.0544 C   0  0  0  0  0  0  0  0  0  0  0  0
    6.2391  -14.0777   19.6849 C   0  0  0  0  0  0  0  0  0  0  0  0
    7.5264  -13.9611   18.8836 C   0  0  0  0  0  0  0  0  0  0  0  0
    8.2038  -12.6605   19.0202 N   0  0  0  0  0  0  0  0  0  0  0  0
    8.7343  -11.7635   18.0258 C   0  0  0  0  0  0  0  0  0  0  0  0
    8.6899  -11.8076   16.8311 O   0  0  0  0  0  0  0  0  0  0  0  0
    9.5984  -10.5960   18.5878 C   0  0  0  0  0  0  0  0  0  0  0  0
   11.0603  -10.7105   18.2288 C   0  0  0  0  0  0  0  0  0  0  0  0
   11.8721   -9.7693   18.7278 C   0  0  0  0  0  0  0  0  0  0  0  0
   11.3266   -8.7527   19.4867 N   0  0  0  0  0  0  0  0  0  0  0  0
   11.9489   -7.7151   20.1285 C   0  0  0  0  0  0  0  0  0  0  0  0
   10.9315   -6.9630   20.6554 C   0  0  0  0  0  0  0  0  0  0  0  0
    9.7073   -7.5113   20.3581 N   0  0  0  0  0  0  0  0  0  0  0  0
    9.9513   -8.6337   19.7007 C   0  0  0  0  0  0  0  0  0  0  0  0
    9.0754   -9.6058   19.2662 N   0  0  0  0  0  0  0  0  0  0  0  0
    5.0176  -13.7171   19.0876 C   0  0  0  0  0  0  0  0  0  0  0  0
    3.9180  -13.3242   19.8429 C   0  0  0  0  0  0  0  0  0  0  0  0
    4.1609  -13.2572   21.2066 C   0  0  0  0  0  0  0  0  0  0  0  0
    3.9655  -10.4130   22.3032 H   0  0  0  0  0  0  0  0  0  0  0  0
    2.2520  -10.9375   22.4582 H   0  0  0  0  0  0  0  0  0  0  0  0
    3.1062  -10.9234   20.8861 H   0  0  0  0  0  0  0  0  0  0  0  0
    4.0222  -12.4438   24.3180 H   0  0  0  0  0  0  0  0  0  0  0  0
    7.1947  -14.7095   21.5391 H   0  0  0  0  0  0  0  0  0  0  0  0
    8.2380  -14.7271   19.2116 H   0  0  0  0  0  0  0  0  0  0  0  0
    7.3351  -14.1359   17.8189 H   0  0  0  0  0  0  0  0  0  0  0  0
    8.5035  -12.3511   19.9383 H   0  0  0  0  0  0  0  0  0  0  0  0
   11.3913  -11.5310   17.6045 H   0  0  0  0  0  0  0  0  0  0  0  0
   12.9413   -9.7557   18.5541 H   0  0  0  0  0  0  0  0  0  0  0  0
   13.0236   -7.6017   20.1404 H   0  0  0  0  0  0  0  0  0  0  0  0
   11.0213   -6.0569   21.2402 H   0  0  0  0  0  0  0  0  0  0  0  0
    4.9722  -13.5771   18.0066 H   0  0  0  0  0  0  0  0  0  0  0  0
    3.0558  -12.8747   19.3646 H   0  0  0  0  0  0  0  0  0  0  0  0
  1  2  1  0
  2  3  1  0
  3  4  2  0
  4  5  1  0
  5  6  2  0
  6  7  1  0
  7  8  1  0
  8  9  1  0
  9 10  1  0
 10 11  2  0
 10 12  1  0
 12 13  1  0
 13 14  2  0
 14 15  1  0
 15 16  1  0
 16 17  2  0
 17 18  1  0
 18 19  2  0
 19 20  1  0
  7 21  2  0
 21 22  1  0
 22 23  2  0
 23  2  1  0
 23  5  1  0
 20 12  2  0
 19 15  1  0
  1 24  1  0
  1 25  1  0
  1 26  1  0
  3 27  1  0
  6 28  1  0
  8 29  1  0
  8 30  1  0
  9 31  1  0
 13 32  1  0
 14 33  1  0
 16 34  1  0
 17 35  1  0
 21 36  1  0
 22 37  1  0
M  END
>  <Energy>  (446) 
81.487701585858844

>  <compound_id>  (446) 
27109

>  <target_id>  (446) 
1

>  <reference_id>  (446) 
52

>  <inspiration_ids>  (446) 
[52, 106]

>  <energy_score>  (446) 
5.2924378483153305

>  <distance_score>  (446) 
17.128256096748565

>  <path>  (446) 
/opt/xchem-fragalysis-2/maxwin/BulkDock/SCRATCH/511023/C27109-P52/C27109-P52.minimised.mol

>  <scratch_subdir>  (446) 
/opt/xchem-fragalysis-2/maxwin/BulkDock/SCRATCH/511023/C27109-P52

>  <fragmenstein_runtime>  (446) 
19.182245016098022

>  <fragmenstein_outcome>  (446) 
too moved

>  <fragmenstein_mode>  (446) 
expansion

>  <fragmenstein_error>  (446) 


$$$$
C27109-P106
     RDKit          3D

 37 40  0  0  0  0  0  0  0  0999 V2000
   -3.9447  -21.9527   23.8083 C   0  0  0  0  0  0  0  0  0  0  0  0
   -3.9894  -20.9186   22.8002 N   0  0  0  0  0  0  0  0  0  0  0  0
   -5.1379  -20.4204   22.2482 C   0  0  0  0  0  0  0  0  0  0  0  0
   -4.8910  -19.4517   21.3983 N   0  0  0  0  0  0  0  0  0  0  0  0
   -3.5186  -19.4034   21.2866 C   0  0  0  0  0  0  0  0  0  0  0  0
   -2.6893  -18.6041   20.4365 C   0  0  0  0  0  0  0  0  0  0  0  0
   -1.2613  -18.6838   20.4444 C   0  0  0  0  0  0  0  0  0  0  0  0
   -0.3992  -17.9689   19.3297 C   0  0  0  0  0  0  0  0  0  0  0  0
    0.5696  -16.7963   19.3998 N   0  0  0  0  0  0  0  0  0  0  0  0
    1.7896  -16.4888   18.5918 C   0  0  0  0  0  0  0  0  0  0  0  0
    2.3466  -17.1354   17.7440 O   0  0  0  0  0  0  0  0  0  0  0  0
    2.5393  -15.0513   18.7743 C   0  0  0  0  0  0  0  0  0  0  0  0
    3.8964  -15.1044   19.4664 C   0  0  0  0  0  0  0  0  0  0  0  0
    4.7033  -14.0309   19.3672 C   0  0  0  0  0  0  0  0  0  0  0  0
    4.2774  -12.9213   18.6600 N   0  0  0  0  0  0  0  0  0  0  0  0
    4.9266  -11.7370   18.3998 C   0  0  0  0  0  0  0  0  0  0  0  0
    4.0450  -11.0088   17.6409 C   0  0  0  0  0  0  0  0  0  0  0  0
    2.8803  -11.7154   17.4387 N   0  0  0  0  0  0  0  0  0  0  0  0
    3.0224  -12.8844   18.0494 C   0  0  0  0  0  0  0  0  0  0  0  0
    2.1503  -13.9740   18.1134 N   0  0  0  0  0  0  0  0  0  0  0  0
   -0.7353  -19.6489   21.3296 C   0  0  0  0  0  0  0  0  0  0  0  0
   -1.5306  -20.4514   22.2123 C   0  0  0  0  0  0  0  0  0  0  0  0
   -2.9258  -20.3125   22.1645 C   0  0  0  0  0  0  0  0  0  0  0  0
   -4.7302  -22.6839   23.6049 H   0  0  0  0  0  0  0  0  0  0  0  0
   -4.0766  -21.4847   24.7859 H   0  0  0  0  0  0  0  0  0  0  0  0
   -2.9755  -22.4555   23.7663 H   0  0  0  0  0  0  0  0  0  0  0  0
   -6.1237  -20.7970   22.4795 H   0  0  0  0  0  0  0  0  0  0  0  0
   -3.1870  -17.9203   19.7527 H   0  0  0  0  0  0  0  0  0  0  0  0
    0.1705  -18.7691   18.8386 H   0  0  0  0  0  0  0  0  0  0  0  0
   -1.1163  -17.6388   18.5663 H   0  0  0  0  0  0  0  0  0  0  0  0
    0.4280  -16.0601   20.0824 H   0  0  0  0  0  0  0  0  0  0  0  0
    4.2008  -16.0264   19.9395 H   0  0  0  0  0  0  0  0  0  0  0  0
    5.6967  -13.9992   19.7952 H   0  0  0  0  0  0  0  0  0  0  0  0
    5.9228  -11.5333   18.7625 H   0  0  0  0  0  0  0  0  0  0  0  0
    4.1742  -10.0178   17.2262 H   0  0  0  0  0  0  0  0  0  0  0  0
    0.3423  -19.8209   21.3258 H   0  0  0  0  0  0  0  0  0  0  0  0
   -1.0464  -21.1742   22.8615 H   0  0  0  0  0  0  0  0  0  0  0  0
  1  2  1  0
  2  3  1  0
  3  4  2  0
  4  5  1  0
  5  6  2  0
  6  7  1  0
  7  8  1  0
  8  9  1  0
  9 10  1  0
 10 11  2  0
 10 12  1  0
 12 13  1  0
 13 14  2  0
 14 15  1  0
 15 16  1  0
 16 17  2  0
 17 18  1  0
 18 19  2  0
 19 20  1  0
  7 21  2  0
 21 22  1  0
 22 23  2  0
 23  2  1  0
 23  5  1  0
 20 12  2  0
 19 15  1  0
  1 24  1  0
  1 25  1  0
  1 26  1  0
  3 27  1  0
  6 28  1  0
  8 29  1  0
  8 30  1  0
  9 31  1  0
 13 32  1  0
 14 33  1  0
 16 34  1  0
 17 35  1  0
 21 36  1  0
 22 37  1  0
M  END
>  <Energy>  (447) 
97.844124527640474

>  <compound_id>  (447) 
27109

>  <target_id>  (447) 
1

>  <reference_id>  (447) 
106

>  <inspiration_ids>  (447) 
[52, 106]

>  <energy_score>  (447) 
21.64886079008909

>  <distance_score>  (447) 
14.650539366485564

>  <path>  (447) 
/opt/xchem-fragalysis-2/maxwin/BulkDock/SCRATCH/511023/C27109-P106/C27109-P106.minimised.mol

>  <scratch_subdir>  (447) 
/opt/xchem-fragalysis-2/maxwin/BulkDock/SCRATCH/511023/C27109-P106

>  <fragmenstein_runtime>  (447) 
30.699060201644897

>  <fragmenstein_outcome>  (447) 
too moved

>  <fragmenstein_mode>  (447) 
expansion

>  <fragmenstein_error>  (447) 


$$$$
C27113-P52
     RDKit          3D

 37 40  0  0  0  0  0  0  0  0999 V2000
    6.0801  -14.6624   18.4643 C   0  0  0  0  0  0  0  0  0  0  0  0
    5.4315  -13.2809   18.5067 C   0  0  0  0  0  0  0  0  0  0  0  0
    6.4903  -12.2435   18.7123 N   0  0  0  0  0  0  0  0  0  0  0  0
    6.4131  -10.8068   18.7338 C   0  0  0  0  0  0  0  0  0  0  0  0
    5.4697  -10.0748   18.6723 O   0  0  0  0  0  0  0  0  0  0  0  0
    7.7869  -10.1081   18.9274 C   0  0  0  0  0  0  0  0  0  0  0  0
    7.8543   -9.1205   20.0664 C   0  0  0  0  0  0  0  0  0  0  0  0
    9.0627   -8.5938   20.3170 C   0  0  0  0  0  0  0  0  0  0  0  0
   10.1278   -8.9442   19.5066 N   0  0  0  0  0  0  0  0  0  0  0  0
   11.4556   -8.6362   19.6258 C   0  0  0  0  0  0  0  0  0  0  0  0
   12.0596   -9.2561   18.5577 C   0  0  0  0  0  0  0  0  0  0  0  0
   11.1310   -9.8988   17.7782 N   0  0  0  0  0  0  0  0  0  0  0  0
    9.9764   -9.7792   18.4011 C   0  0  0  0  0  0  0  0  0  0  0  0
    8.7783  -10.3911   18.1299 N   0  0  0  0  0  0  0  0  0  0  0  0
    4.2756  -13.2727   19.5204 C   0  0  0  0  0  0  0  0  0  0  0  0
    3.2565  -14.1415   19.5869 N   0  0  0  0  0  0  0  0  0  0  0  0
    2.2848  -13.5416   20.3853 C   0  0  0  0  0  0  0  0  0  0  0  0
    0.5363  -13.9660   21.0596 C   0  0  0  0  0  0  0  0  0  0  0  0
   -0.5385  -12.7050   21.8486 C   0  0  0  0  0  0  0  0  0  0  0  0
    0.2182  -10.8672   21.6688 C   0  0  0  0  0  0  0  0  0  0  0  0
    1.9914  -10.7756   21.4292 C   0  0  0  0  0  0  0  0  0  0  0  0
    2.9659  -12.1166   20.9402 C   0  0  0  0  0  0  0  0  0  0  0  0
    4.1882  -12.2046   20.3839 N   0  0  0  0  0  0  0  0  0  0  0  0
    6.8668  -14.6999   17.7028 H   0  0  0  0  0  0  0  0  0  0  0  0
    5.3467  -15.4414   18.2293 H   0  0  0  0  0  0  0  0  0  0  0  0
    6.5394  -14.9128   19.4276 H   0  0  0  0  0  0  0  0  0  0  0  0
    4.9924  -13.0552   17.5271 H   0  0  0  0  0  0  0  0  0  0  0  0
    7.4687  -12.5229   18.6998 H   0  0  0  0  0  0  0  0  0  0  0  0
    6.9621   -8.9178   20.6434 H   0  0  0  0  0  0  0  0  0  0  0  0
    9.2612   -7.9228   21.1419 H   0  0  0  0  0  0  0  0  0  0  0  0
   11.8498   -8.0321   20.4294 H   0  0  0  0  0  0  0  0  0  0  0  0
   13.1087   -9.2504   18.2848 H   0  0  0  0  0  0  0  0  0  0  0  0
    0.1032  -14.9451   20.7319 H   0  0  0  0  0  0  0  0  0  0  0  0
   -0.8372  -12.9889   22.8760 H   0  0  0  0  0  0  0  0  0  0  0  0
   -0.3706  -10.0585   21.1864 H   0  0  0  0  0  0  0  0  0  0  0  0
    2.4121   -9.8712   20.9791 H   0  0  0  0  0  0  0  0  0  0  0  0
    4.8103  -11.4188   20.3423 H   0  0  0  0  0  0  0  0  0  0  0  0
  1  2  1  0
  2  3  1  0
  3  4  1  0
  4  5  2  0
  4  6  1  0
  6  7  1  0
  7  8  2  0
  8  9  1  0
  9 10  1  0
 10 11  2  0
 11 12  1  0
 12 13  2  0
 13 14  1  0
  2 15  1  0
 15 16  2  0
 16 17  1  0
 17 18  2  0
 18 19  1  0
 19 20  2  0
 20 21  1  0
 21 22  2  0
 22 23  1  0
 14  6  2  0
 23 15  1  0
 13  9  1  0
 22 17  1  0
  1 24  1  0
  1 25  1  0
  1 26  1  0
  2 27  1  0
  3 28  1  0
  7 29  1  0
  8 30  1  0
 10 31  1  0
 11 32  1  0
 18 33  1  0
 19 34  1  0
 20 35  1  0
 21 36  1  0
 23 37  1  0
M  END
>  <Energy>  (448) 
433.53016756267488

>  <compound_id>  (448) 
27113

>  <target_id>  (448) 
1

>  <reference_id>  (448) 
52

>  <inspiration_ids>  (448) 
[52, 106]

>  <energy_score>  (448) 
351.8575438834755

>  <distance_score>  (448) 
16.307446908707664

>  <path>  (448) 
/opt/xchem-fragalysis-2/maxwin/BulkDock/SCRATCH/511023/C27113-P52/C27113-P52.minimised.mol

>  <scratch_subdir>  (448) 
/opt/xchem-fragalysis-2/maxwin/BulkDock/SCRATCH/511023/C27113-P52

>  <fragmenstein_runtime>  (448) 
14.737360715866089

>  <fragmenstein_outcome>  (448) 
too moved

>  <fragmenstein_mode>  (448) 
expansion

>  <fragmenstein_error>  (448) 


$$$$
C27113-P106
     RDKit          3D

 37 40  0  0  0  0  0  0  0  0999 V2000
   -1.3245   -6.6243   26.4793 C   0  0  0  0  0  0  0  0  0  0  0  0
   -1.1361   -7.7147   25.4641 C   0  0  0  0  0  0  0  0  0  0  0  0
   -0.2940   -7.1743   24.2945 N   0  0  0  0  0  0  0  0  0  0  0  0
    0.3412   -5.8222   24.0820 C   0  0  0  0  0  0  0  0  0  0  0  0
    0.2716   -4.8123   24.7398 O   0  0  0  0  0  0  0  0  0  0  0  0
    1.3929   -5.6206   22.8707 C   0  0  0  0  0  0  0  0  0  0  0  0
    2.2998   -6.7496   22.4603 C   0  0  0  0  0  0  0  0  0  0  0  0
    3.3869   -6.4493   21.7278 C   0  0  0  0  0  0  0  0  0  0  0  0
    3.5917   -5.1419   21.3300 N   0  0  0  0  0  0  0  0  0  0  0  0
    4.6309   -4.5814   20.6373 C   0  0  0  0  0  0  0  0  0  0  0  0
    4.2971   -3.2543   20.5143 C   0  0  0  0  0  0  0  0  0  0  0  0
    3.0883   -2.9960   21.1034 N   0  0  0  0  0  0  0  0  0  0  0  0
    2.6730   -4.1392   21.6217 C   0  0  0  0  0  0  0  0  0  0  0  0
    1.5691   -4.3971   22.4027 N   0  0  0  0  0  0  0  0  0  0  0  0
   -2.2710   -9.1284   25.4419 C   0  0  0  0  0  0  0  0  0  0  0  0
   -2.3428  -10.4105   26.4890 N   0  0  0  0  0  0  0  0  0  0  0  0
   -2.8700  -11.6673   26.1433 C   0  0  0  0  0  0  0  0  0  0  0  0
   -3.3995  -12.5984   26.9079 C   0  0  0  0  0  0  0  0  0  0  0  0
   -2.6607  -14.1385   26.5258 C   0  0  0  0  0  0  0  0  0  0  0  0
   -2.0996  -14.3519   25.4237 C   0  0  0  0  0  0  0  0  0  0  0  0
   -2.0508  -12.9975   25.2748 C   0  0  0  0  0  0  0  0  0  0  0  0
   -3.0102  -11.7851   24.8286 C   0  0  0  0  0  0  0  0  0  0  0  0
   -2.6497   -9.9979   24.1926 N   0  0  0  0  0  0  0  0  0  0  0  0
   -1.5076   -5.6957   25.9504 H   0  0  0  0  0  0  0  0  0  0  0  0
   -0.3993   -6.4410   27.0438 H   0  0  0  0  0  0  0  0  0  0  0  0
   -2.0873   -6.8296   27.2168 H   0  0  0  0  0  0  0  0  0  0  0  0
   -0.3525   -8.2156   26.0332 H   0  0  0  0  0  0  0  0  0  0  0  0
    0.0454   -7.8137   23.5931 H   0  0  0  0  0  0  0  0  0  0  0  0
    2.0792   -7.7424   22.7942 H   0  0  0  0  0  0  0  0  0  0  0  0
    4.1151   -7.1889   21.4228 H   0  0  0  0  0  0  0  0  0  0  0  0
    5.4876   -5.1488   20.3083 H   0  0  0  0  0  0  0  0  0  0  0  0
    4.8557   -2.4626   20.0352 H   0  0  0  0  0  0  0  0  0  0  0  0
   -3.6848  -12.2174   27.9058 H   0  0  0  0  0  0  0  0  0  0  0  0
   -2.3071  -14.8375   27.3584 H   0  0  0  0  0  0  0  0  0  0  0  0
   -1.7071  -15.1048   24.7974 H   0  0  0  0  0  0  0  0  0  0  0  0
   -1.0628  -12.8054   25.6016 H   0  0  0  0  0  0  0  0  0  0  0  0
   -3.3381   -9.6065   23.5586 H   0  0  0  0  0  0  0  0  0  0  0  0
  1  2  1  0
  2  3  1  0
  3  4  1  0
  4  5  2  0
  4  6  1  0
  6  7  1  0
  7  8  2  0
  8  9  1  0
  9 10  1  0
 10 11  2  0
 11 12  1  0
 12 13  2  0
 13 14  1  0
  2 15  1  0
 15 16  2  0
 16 17  1  0
 17 18  2  0
 18 19  1  0
 19 20  2  0
 20 21  1  0
 21 22  2  0
 22 23  1  0
 14  6  2  0
 23 15  1  0
 13  9  1  0
 22 17  1  0
  1 24  1  0
  1 25  1  0
  1 26  1  0
  2 27  1  0
  3 28  1  0
  7 29  1  0
  8 30  1  0
 10 31  1  0
 11 32  1  0
 18 33  1  0
 19 34  1  0
 20 35  1  0
 21 36  1  0
 23 37  1  0
M  END
>  <Energy>  (449) 
558.72227477929471

>  <compound_id>  (449) 
27113

>  <target_id>  (449) 
1

>  <reference_id>  (449) 
106

>  <inspiration_ids>  (449) 
[52, 106]

>  <energy_score>  (449) 
477.0496511000972

>  <distance_score>  (449) 
14.241189541916594

>  <path>  (449) 
/opt/xchem-fragalysis-2/maxwin/BulkDock/SCRATCH/511023/C27113-P106/C27113-P106.minimised.mol

>  <scratch_subdir>  (449) 
/opt/xchem-fragalysis-2/maxwin/BulkDock/SCRATCH/511023/C27113-P106

>  <fragmenstein_runtime>  (449) 
16.45925736427307

>  <fragmenstein_outcome>  (449) 
too moved

>  <fragmenstein_mode>  (449) 
expansion

>  <fragmenstein_error>  (449) 


$$$$
C27103-P52
     RDKit          3D

 36 40  0  0  0  0  0  0  0  0999 V2000
   -6.9162  -21.1271   32.1340 C   0  0  0  0  0  0  0  0  0  0  0  0
   -7.9349  -22.5107   30.7790 C   0  0  0  0  0  0  0  0  0  0  0  0
   -7.5764  -21.3885   28.9202 C   0  0  0  0  0  0  0  0  0  0  0  0
   -6.4180  -19.7668   28.2611 C   0  0  0  0  0  0  0  0  0  0  0  0
   -5.5021  -18.7021   27.1715 N   0  0  0  0  0  0  0  0  0  0  0  0
   -4.6007  -17.1664   27.4967 C   0  0  0  0  0  0  0  0  0  0  0  0
   -3.0441  -15.7964   26.6577 C   0  0  0  0  0  0  0  0  0  0  0  0
   -2.9097  -14.9352   24.7830 C   0  0  0  0  0  0  0  0  0  0  0  0
   -2.1833  -13.4004   24.8115 N   0  0  0  0  0  0  0  0  0  0  0  0
   -0.7425  -12.8526   23.6798 C   0  0  0  0  0  0  0  0  0  0  0  0
    0.8255  -11.8618   24.4369 C   0  0  0  0  0  0  0  0  0  0  0  0
    1.8249  -11.5473   23.3422 C   0  0  0  0  0  0  0  0  0  0  0  0
    1.7313  -10.8200   22.1726 N   0  0  0  0  0  0  0  0  0  0  0  0
    2.6853  -10.5672   21.1304 C   0  0  0  0  0  0  0  0  0  0  0  0
    2.0106   -9.9034   20.1409 C   0  0  0  0  0  0  0  0  0  0  0  0
    0.5948  -10.0008   20.4108 N   0  0  0  0  0  0  0  0  0  0  0  0
    0.3786  -10.7139   21.6675 C   0  0  0  0  0  0  0  0  0  0  0  0
   -0.4773  -12.3420   22.1168 N   0  0  0  0  0  0  0  0  0  0  0  0
   -2.2591  -13.9938   26.6165 C   0  0  0  0  0  0  0  0  0  0  0  0
   -5.0266  -17.1529   28.9216 N   0  0  0  0  0  0  0  0  0  0  0  0
   -5.8154  -18.3952   29.6337 C   0  0  0  0  0  0  0  0  0  0  0  0
   -6.3389  -19.2460   31.4537 C   0  0  0  0  0  0  0  0  0  0  0  0
   -7.3514  -21.1566   33.1473 H   0  0  0  0  0  0  0  0  0  0  0  0
   -8.6135  -23.3245   31.0007 H   0  0  0  0  0  0  0  0  0  0  0  0
   -8.0530  -21.8239   28.0383 H   0  0  0  0  0  0  0  0  0  0  0  0
   -5.3454  -19.0981   26.2662 H   0  0  0  0  0  0  0  0  0  0  0  0
   -2.2428  -16.5625   26.6375 H   0  0  0  0  0  0  0  0  0  0  0  0
   -3.7036  -14.6365   24.1061 H   0  0  0  0  0  0  0  0  0  0  0  0
   -2.2929  -15.7463   24.5138 H   0  0  0  0  0  0  0  0  0  0  0  0
    1.0644  -12.2214   25.4120 H   0  0  0  0  0  0  0  0  0  0  0  0
    2.8596  -11.9160   23.4076 H   0  0  0  0  0  0  0  0  0  0  0  0
    3.7050  -10.9063   21.2253 H   0  0  0  0  0  0  0  0  0  0  0  0
    2.3545   -9.4648   19.2161 H   0  0  0  0  0  0  0  0  0  0  0  0
   -2.6213  -13.2741   27.2886 H   0  0  0  0  0  0  0  0  0  0  0  0
   -1.3548  -13.8278   27.1777 H   0  0  0  0  0  0  0  0  0  0  0  0
   -5.9974  -18.5615   32.2561 H   0  0  0  0  0  0  0  0  0  0  0  0
  1  2  2  0
  2  3  1  0
  3  4  2  0
  4  5  1  0
  5  6  1  0
  6  7  1  0
  7  8  1  0
  8  9  1  0
  9 10  1  0
 10 11  1  0
 11 12  2  0
 12 13  1  0
 13 14  1  0
 14 15  2  0
 15 16  1  0
 16 17  2  0
 17 18  1  0
  9 19  1  0
  6 20  2  0
 20 21  1  0
 21 22  2  0
 22  1  1  0
 21  4  1  0
 19  7  1  0
 18 10  2  0
 17 13  1  0
  1 23  1  0
  2 24  1  0
  3 25  1  0
  5 26  1  0
  7 27  1  0
  8 28  1  0
  8 29  1  0
 11 30  1  0
 12 31  1  0
 14 32  1  0
 15 33  1  0
 19 34  1  0
 19 35  1  0
 22 36  1  0
M  END
>  <Energy>  (450) 
2192.1360093399394

>  <compound_id>  (450) 
27103

>  <target_id>  (450) 
1

>  <reference_id>  (450) 
52

>  <inspiration_ids>  (450) 
[52, 106]

>  <energy_score>  (450) 
2116.84319867864

>  <distance_score>  (450) 
13.698449888068843

>  <path>  (450) 
/opt/xchem-fragalysis-2/maxwin/BulkDock/SCRATCH/511023/C27103-P52/C27103-P52.minimised.mol

>  <scratch_subdir>  (450) 
/opt/xchem-fragalysis-2/maxwin/BulkDock/SCRATCH/511023/C27103-P52

>  <fragmenstein_runtime>  (450) 
11.768913984298706

>  <fragmenstein_outcome>  (450) 
too moved

>  <fragmenstein_mode>  (450) 
expansion

>  <fragmenstein_error>  (450) 


$$$$
C27103-P106
     RDKit          3D

 36 40  0  0  0  0  0  0  0  0999 V2000
    1.1157  -19.7937   28.6091 C   0  0  0  0  0  0  0  0  0  0  0  0
    1.0970  -20.4962   27.4075 C   0  0  0  0  0  0  0  0  0  0  0  0
    1.9590  -20.1410   26.3540 C   0  0  0  0  0  0  0  0  0  0  0  0
    2.8281  -19.0458   26.5458 C   0  0  0  0  0  0  0  0  0  0  0  0
    3.7962  -18.4367   25.7487 N   0  0  0  0  0  0  0  0  0  0  0  0
    4.3374  -17.3309   26.4082 C   0  0  0  0  0  0  0  0  0  0  0  0
    5.6463  -16.2955   25.8677 C   0  0  0  0  0  0  0  0  0  0  0  0
    5.5061  -14.7179   25.8073 C   0  0  0  0  0  0  0  0  0  0  0  0
    6.5113  -14.7413   24.7455 N   0  0  0  0  0  0  0  0  0  0  0  0
    6.8830  -13.6572   23.8757 C   0  0  0  0  0  0  0  0  0  0  0  0
    7.7005  -13.9979   22.6189 C   0  0  0  0  0  0  0  0  0  0  0  0
    8.1862  -13.0119   21.8454 C   0  0  0  0  0  0  0  0  0  0  0  0
    7.9148  -11.7019   22.1762 N   0  0  0  0  0  0  0  0  0  0  0  0
    8.2815  -10.5364   21.5469 C   0  0  0  0  0  0  0  0  0  0  0  0
    7.7129   -9.5371   22.2955 C   0  0  0  0  0  0  0  0  0  0  0  0
    7.0213  -10.0641   23.3634 N   0  0  0  0  0  0  0  0  0  0  0  0
    7.1528  -11.3839   23.2949 C   0  0  0  0  0  0  0  0  0  0  0  0
    6.6663  -12.3737   24.1427 N   0  0  0  0  0  0  0  0  0  0  0  0
    5.9980  -16.0565   24.3402 C   0  0  0  0  0  0  0  0  0  0  0  0
    3.7591  -17.2578   27.6080 N   0  0  0  0  0  0  0  0  0  0  0  0
    2.8375  -18.3031   27.7165 C   0  0  0  0  0  0  0  0  0  0  0  0
    1.9774  -18.6925   28.7717 C   0  0  0  0  0  0  0  0  0  0  0  0
    0.4597  -20.0886   29.4242 H   0  0  0  0  0  0  0  0  0  0  0  0
    0.4204  -21.3388   27.2850 H   0  0  0  0  0  0  0  0  0  0  0  0
    1.9548  -20.6979   25.4225 H   0  0  0  0  0  0  0  0  0  0  0  0
    4.0533  -18.7383   24.8220 H   0  0  0  0  0  0  0  0  0  0  0  0
    6.5216  -16.6161   26.4535 H   0  0  0  0  0  0  0  0  0  0  0  0
    5.8370  -14.1780   26.6957 H   0  0  0  0  0  0  0  0  0  0  0  0
    4.5464  -14.3619   25.4392 H   0  0  0  0  0  0  0  0  0  0  0  0
    7.8875  -15.0427   22.4123 H   0  0  0  0  0  0  0  0  0  0  0  0
    8.7800  -13.1949   20.9598 H   0  0  0  0  0  0  0  0  0  0  0  0
    8.8857  -10.5280   20.6518 H   0  0  0  0  0  0  0  0  0  0  0  0
    7.7600   -8.4684   22.1328 H   0  0  0  0  0  0  0  0  0  0  0  0
    5.1517  -15.9827   23.6494 H   0  0  0  0  0  0  0  0  0  0  0  0
    6.7756  -16.7083   23.9360 H   0  0  0  0  0  0  0  0  0  0  0  0
    1.9897  -18.1449   29.7069 H   0  0  0  0  0  0  0  0  0  0  0  0
  1  2  2  0
  2  3  1  0
  3  4  2  0
  4  5  1  0
  5  6  1  0
  6  7  1  0
  7  8  1  0
  8  9  1  0
  9 10  1  0
 10 11  1  0
 11 12  2  0
 12 13  1  0
 13 14  1  0
 14 15  2  0
 15 16  1  0
 16 17  2  0
 17 18  1  0
  9 19  1  0
  6 20  2  0
 20 21  1  0
 21 22  2  0
 22  1  1  0
 21  4  1  0
 19  7  1  0
 18 10  2  0
 17 13  1  0
  1 23  1  0
  2 24  1  0
  3 25  1  0
  5 26  1  0
  7 27  1  0
  8 28  1  0
  8 29  1  0
 11 30  1  0
 12 31  1  0
 14 32  1  0
 15 33  1  0
 19 34  1  0
 19 35  1  0
 22 36  1  0
M  END
>  <Energy>  (451) 
60.734731949603798

>  <compound_id>  (451) 
27103

>  <target_id>  (451) 
1

>  <reference_id>  (451) 
106

>  <inspiration_ids>  (451) 
[52, 106]

>  <energy_score>  (451) 
-14.558078711711687

>  <distance_score>  (451) 
15.104732259695362

>  <path>  (451) 
/opt/xchem-fragalysis-2/maxwin/BulkDock/SCRATCH/511023/C27103-P106/C27103-P106.minimised.mol

>  <scratch_subdir>  (451) 
/opt/xchem-fragalysis-2/maxwin/BulkDock/SCRATCH/511023/C27103-P106

>  <fragmenstein_runtime>  (451) 
20.25031352043152

>  <fragmenstein_outcome>  (451) 
too moved

>  <fragmenstein_mode>  (451) 
expansion

>  <fragmenstein_error>  (451) 


$$$$
C27115-P52
     RDKit          3D

 42 46  0  0  0  0  0  0  0  0999 V2000
  -10.2583  -20.7675   32.3471 C   0  0  0  0  0  0  0  0  0  0  0  0
   -9.0617  -20.7524   33.2173 C   0  0  0  0  0  0  0  0  0  0  0  0
   -7.7263  -19.7774   33.1474 C   0  0  0  0  0  0  0  0  0  0  0  0
   -7.2955  -19.4184   31.6678 C   0  0  0  0  0  0  0  0  0  0  0  0
   -5.9103  -18.3927   30.7790 N   0  0  0  0  0  0  0  0  0  0  0  0
   -6.3111  -17.7113   29.0249 C   0  0  0  0  0  0  0  0  0  0  0  0
   -4.9905  -16.8546   27.5596 C   0  0  0  0  0  0  0  0  0  0  0  0
   -3.1674  -16.1714   26.7774 C   0  0  0  0  0  0  0  0  0  0  0  0
   -2.8832  -15.2466   25.0164 C   0  0  0  0  0  0  0  0  0  0  0  0
   -2.2297  -13.4724   24.8339 N   0  0  0  0  0  0  0  0  0  0  0  0
   -0.7768  -12.8432   23.6917 C   0  0  0  0  0  0  0  0  0  0  0  0
    0.8684  -11.8544   24.3697 C   0  0  0  0  0  0  0  0  0  0  0  0
    1.8699  -11.4545   23.1706 C   0  0  0  0  0  0  0  0  0  0  0  0
    1.7642  -10.4651   22.0439 N   0  0  0  0  0  0  0  0  0  0  0  0
    2.6588   -9.1246   21.1146 C   0  0  0  0  0  0  0  0  0  0  0  0
    1.4723   -8.3912   20.1175 C   0  0  0  0  0  0  0  0  0  0  0  0
    0.0536   -9.5591   20.3971 N   0  0  0  0  0  0  0  0  0  0  0  0
    0.2402  -10.6306   21.5816 C   0  0  0  0  0  0  0  0  0  0  0  0
   -0.5022  -12.3053   22.0991 N   0  0  0  0  0  0  0  0  0  0  0  0
   -2.4717  -13.8531   26.7347 C   0  0  0  0  0  0  0  0  0  0  0  0
   -3.9231  -15.0369   27.6370 C   0  0  0  0  0  0  0  0  0  0  0  0
   -8.0604  -18.2969   28.9678 N   0  0  0  0  0  0  0  0  0  0  0  0
   -9.1469  -19.4890   30.5500 C   0  0  0  0  0  0  0  0  0  0  0  0
  -10.3771  -20.0682   31.0925 C   0  0  0  0  0  0  0  0  0  0  0  0
  -11.0911  -21.4038   32.6546 H   0  0  0  0  0  0  0  0  0  0  0  0
   -9.0517  -21.5112   33.9907 H   0  0  0  0  0  0  0  0  0  0  0  0
   -7.1201  -19.5555   34.0098 H   0  0  0  0  0  0  0  0  0  0  0  0
   -5.2940  -17.8670   31.3737 H   0  0  0  0  0  0  0  0  0  0  0  0
   -4.7215  -17.8989   27.2530 H   0  0  0  0  0  0  0  0  0  0  0  0
   -2.6310  -17.1610   26.5409 H   0  0  0  0  0  0  0  0  0  0  0  0
   -2.2237  -15.9139   27.2051 H   0  0  0  0  0  0  0  0  0  0  0  0
   -2.2215  -16.0112   24.7052 H   0  0  0  0  0  0  0  0  0  0  0  0
   -3.6713  -14.9287   24.3633 H   0  0  0  0  0  0  0  0  0  0  0  0
    0.4540  -11.0780   25.0274 H   0  0  0  0  0  0  0  0  0  0  0  0
    2.7842  -12.0243   23.0378 H   0  0  0  0  0  0  0  0  0  0  0  0
    3.7191   -9.2653   20.9434 H   0  0  0  0  0  0  0  0  0  0  0  0
    1.4433   -7.7510   19.2469 H   0  0  0  0  0  0  0  0  0  0  0  0
   -2.2753  -12.9866   27.3316 H   0  0  0  0  0  0  0  0  0  0  0  0
   -1.5883  -14.3335   27.0482 H   0  0  0  0  0  0  0  0  0  0  0  0
   -3.7305  -14.6112   28.6875 H   0  0  0  0  0  0  0  0  0  0  0  0
   -4.8408  -14.8125   28.2951 H   0  0  0  0  0  0  0  0  0  0  0  0
  -11.2653  -20.1266   30.4789 H   0  0  0  0  0  0  0  0  0  0  0  0
  1  2  2  0
  2  3  1  0
  3  4  2  0
  4  5  1  0
  5  6  1  0
  6  7  1  0
  7  8  1  0
  8  9  1  0
  9 10  1  0
 10 11  1  0
 11 12  1  0
 12 13  2  0
 13 14  1  0
 14 15  1  0
 15 16  2  0
 16 17  1  0
 17 18  2  0
 18 19  1  0
 10 20  1  0
 20 21  1  0
  6 22  2  0
 22 23  1  0
 23 24  2  0
 24  1  1  0
 23  4  1  0
 21  7  1  0
 19 11  2  0
 18 14  1  0
  1 25  1  0
  2 26  1  0
  3 27  1  0
  5 28  1  0
  7 29  1  0
  8 30  1  0
  8 31  1  0
  9 32  1  0
  9 33  1  0
 12 34  1  0
 13 35  1  0
 15 36  1  0
 16 37  1  0
 20 38  1  0
 20 39  1  0
 21 40  1  0
 21 41  1  0
 24 42  1  0
M  END
>  <Energy>  (452) 
2509.0387543688539

>  <compound_id>  (452) 
27115

>  <target_id>  (452) 
1

>  <reference_id>  (452) 
52

>  <inspiration_ids>  (452) 
[52, 106]

>  <energy_score>  (452) 
2469.2156766045728

>  <distance_score>  (452) 
13.317560095978672

>  <path>  (452) 
/opt/xchem-fragalysis-2/maxwin/BulkDock/SCRATCH/511023/C27115-P52/C27115-P52.minimised.mol

>  <scratch_subdir>  (452) 
/opt/xchem-fragalysis-2/maxwin/BulkDock/SCRATCH/511023/C27115-P52

>  <fragmenstein_runtime>  (452) 
17.00955820083618

>  <fragmenstein_outcome>  (452) 
too moved

>  <fragmenstein_mode>  (452) 
expansion

>  <fragmenstein_error>  (452) 


$$$$
C27115-P106
     RDKit          3D

 42 46  0  0  0  0  0  0  0  0999 V2000
    1.2759  -19.8132   29.0062 C   0  0  0  0  0  0  0  0  0  0  0  0
    1.2190  -20.5307   27.8152 C   0  0  0  0  0  0  0  0  0  0  0  0
    2.0311  -20.1764   26.7211 C   0  0  0  0  0  0  0  0  0  0  0  0
    2.9049  -19.0810   26.8694 C   0  0  0  0  0  0  0  0  0  0  0  0
    3.8351  -18.4756   26.0293 N   0  0  0  0  0  0  0  0  0  0  0  0
    4.4588  -17.3947   26.6757 C   0  0  0  0  0  0  0  0  0  0  0  0
    5.4729  -16.3428   25.9250 C   0  0  0  0  0  0  0  0  0  0  0  0
    5.3307  -14.8684   26.3732 C   0  0  0  0  0  0  0  0  0  0  0  0
    6.5944  -13.9268   26.3348 C   0  0  0  0  0  0  0  0  0  0  0  0
    7.5014  -14.1367   25.1828 N   0  0  0  0  0  0  0  0  0  0  0  0
    8.1159  -13.0311   24.4340 C   0  0  0  0  0  0  0  0  0  0  0  0
    9.2993  -13.3076   23.4964 C   0  0  0  0  0  0  0  0  0  0  0  0
    9.7981  -12.3124   22.7427 C   0  0  0  0  0  0  0  0  0  0  0  0
    9.2339  -11.0566   22.8232 N   0  0  0  0  0  0  0  0  0  0  0  0
    9.5315   -9.9072   22.1313 C   0  0  0  0  0  0  0  0  0  0  0  0
    8.6336   -8.9761   22.5902 C   0  0  0  0  0  0  0  0  0  0  0  0
    7.8085   -9.5271   23.5445 N   0  0  0  0  0  0  0  0  0  0  0  0
    8.1816  -10.7918   23.6920 C   0  0  0  0  0  0  0  0  0  0  0  0
    7.6584  -11.7839   24.5091 N   0  0  0  0  0  0  0  0  0  0  0  0
    7.7849  -15.5866   24.9692 C   0  0  0  0  0  0  0  0  0  0  0  0
    6.9858  -16.6142   25.8946 C   0  0  0  0  0  0  0  0  0  0  0  0
    3.9136  -17.3175   27.8891 N   0  0  0  0  0  0  0  0  0  0  0  0
    2.9766  -18.3447   28.0373 C   0  0  0  0  0  0  0  0  0  0  0  0
    2.1485  -18.7161   29.1258 C   0  0  0  0  0  0  0  0  0  0  0  0
    0.6516  -20.1000   29.8488 H   0  0  0  0  0  0  0  0  0  0  0  0
    0.5508  -21.3855   27.7299 H   0  0  0  0  0  0  0  0  0  0  0  0
    1.9893  -20.7396   25.7923 H   0  0  0  0  0  0  0  0  0  0  0  0
    4.0001  -18.7500   25.0726 H   0  0  0  0  0  0  0  0  0  0  0  0
    5.1509  -16.3923   24.8741 H   0  0  0  0  0  0  0  0  0  0  0  0
    4.5646  -14.4352   25.7309 H   0  0  0  0  0  0  0  0  0  0  0  0
    4.9398  -14.8323   27.3921 H   0  0  0  0  0  0  0  0  0  0  0  0
    6.2680  -12.8849   26.3831 H   0  0  0  0  0  0  0  0  0  0  0  0
    7.1771  -14.0981   27.2489 H   0  0  0  0  0  0  0  0  0  0  0  0
    9.7047  -14.3080   23.4665 H   0  0  0  0  0  0  0  0  0  0  0  0
   10.6242  -12.4482   22.0576 H   0  0  0  0  0  0  0  0  0  0  0  0
   10.3213   -9.8609   21.3965 H   0  0  0  0  0  0  0  0  0  0  0  0
    8.5316   -7.9402   22.2942 H   0  0  0  0  0  0  0  0  0  0  0  0
    7.5540  -15.8263   23.9248 H   0  0  0  0  0  0  0  0  0  0  0  0
    8.8540  -15.7664   25.1273 H   0  0  0  0  0  0  0  0  0  0  0  0
    7.3905  -16.5690   26.9137 H   0  0  0  0  0  0  0  0  0  0  0  0
    7.1768  -17.6298   25.5283 H   0  0  0  0  0  0  0  0  0  0  0  0
    2.2039  -18.1659   30.0582 H   0  0  0  0  0  0  0  0  0  0  0  0
  1  2  2  0
  2  3  1  0
  3  4  2  0
  4  5  1  0
  5  6  1  0
  6  7  1  0
  7  8  1  0
  8  9  1  0
  9 10  1  0
 10 11  1  0
 11 12  1  0
 12 13  2  0
 13 14  1  0
 14 15  1  0
 15 16  2  0
 16 17  1  0
 17 18  2  0
 18 19  1  0
 10 20  1  0
 20 21  1  0
  6 22  2  0
 22 23  1  0
 23 24  2  0
 24  1  1  0
 23  4  1  0
 21  7  1  0
 19 11  2  0
 18 14  1  0
  1 25  1  0
  2 26  1  0
  3 27  1  0
  5 28  1  0
  7 29  1  0
  8 30  1  0
  8 31  1  0
  9 32  1  0
  9 33  1  0
 12 34  1  0
 13 35  1  0
 15 36  1  0
 16 37  1  0
 20 38  1  0
 20 39  1  0
 21 40  1  0
 21 41  1  0
 24 42  1  0
M  END
>  <Energy>  (453) 
28.751745823821992

>  <compound_id>  (453) 
27115

>  <target_id>  (453) 
1

>  <reference_id>  (453) 
106

>  <inspiration_ids>  (453) 
[52, 106]

>  <energy_score>  (453) 
-11.071331940455707

>  <distance_score>  (453) 
14.740005743113644

>  <path>  (453) 
/opt/xchem-fragalysis-2/maxwin/BulkDock/SCRATCH/511023/C27115-P106/C27115-P106.minimised.mol

>  <scratch_subdir>  (453) 
/opt/xchem-fragalysis-2/maxwin/BulkDock/SCRATCH/511023/C27115-P106

>  <fragmenstein_runtime>  (453) 
22.82829260826111

>  <fragmenstein_outcome>  (453) 
too moved

>  <fragmenstein_mode>  (453) 
expansion

>  <fragmenstein_error>  (453) 


$$$$
C27116-P52
     RDKit          3D

 37 40  0  0  0  0  0  0  0  0999 V2000
   -4.1188   -5.6865   32.5547 C   0  0  0  0  0  0  0  0  0  0  0  0
   -3.2710   -5.0282   31.6211 O   0  0  0  0  0  0  0  0  0  0  0  0
   -2.6212   -5.8112   30.7101 C   0  0  0  0  0  0  0  0  0  0  0  0
   -2.8082   -7.1599   30.5080 C   0  0  0  0  0  0  0  0  0  0  0  0
   -2.0805   -7.8422   29.5058 C   0  0  0  0  0  0  0  0  0  0  0  0
   -1.1476   -7.1753   28.6862 C   0  0  0  0  0  0  0  0  0  0  0  0
   -0.2751   -7.6149   27.7111 N   0  0  0  0  0  0  0  0  0  0  0  0
    0.5580   -6.5983   27.5085 C   0  0  0  0  0  0  0  0  0  0  0  0
    2.0123   -6.6589   27.0412 C   0  0  0  0  0  0  0  0  0  0  0  0
    2.4072   -5.5791   26.1244 O   0  0  0  0  0  0  0  0  0  0  0  0
    3.7531   -5.5850   25.8832 C   0  0  0  0  0  0  0  0  0  0  0  0
    4.5634   -6.2914   26.4691 O   0  0  0  0  0  0  0  0  0  0  0  0
    4.3160   -4.6272   24.7859 C   0  0  0  0  0  0  0  0  0  0  0  0
    5.2613   -3.5569   25.2833 C   0  0  0  0  0  0  0  0  0  0  0  0
    5.8518   -2.7973   24.3454 C   0  0  0  0  0  0  0  0  0  0  0  0
    5.5701   -3.0327   23.0100 N   0  0  0  0  0  0  0  0  0  0  0  0
    5.9871   -2.3631   21.8914 C   0  0  0  0  0  0  0  0  0  0  0  0
    5.4351   -3.0489   20.8356 C   0  0  0  0  0  0  0  0  0  0  0  0
    4.6869   -4.1070   21.2845 N   0  0  0  0  0  0  0  0  0  0  0  0
    4.7224   -4.0601   22.6024 C   0  0  0  0  0  0  0  0  0  0  0  0
    4.0786   -4.8587   23.5202 N   0  0  0  0  0  0  0  0  0  0  0  0
    0.0309   -5.4625   28.0840 N   0  0  0  0  0  0  0  0  0  0  0  0
   -0.9894   -5.8266   28.9254 C   0  0  0  0  0  0  0  0  0  0  0  0
   -1.7097   -5.1239   29.9037 C   0  0  0  0  0  0  0  0  0  0  0  0
   -4.9806   -6.1367   32.0512 H   0  0  0  0  0  0  0  0  0  0  0  0
   -3.5655   -6.4321   33.1354 H   0  0  0  0  0  0  0  0  0  0  0  0
   -4.4967   -4.9332   33.2525 H   0  0  0  0  0  0  0  0  0  0  0  0
   -3.5734   -7.6824   31.0443 H   0  0  0  0  0  0  0  0  0  0  0  0
   -2.2999   -8.8741   29.2756 H   0  0  0  0  0  0  0  0  0  0  0  0
    2.6386   -6.6114   27.9413 H   0  0  0  0  0  0  0  0  0  0  0  0
    2.1739   -7.6193   26.5450 H   0  0  0  0  0  0  0  0  0  0  0  0
    5.4353   -3.4549   26.3465 H   0  0  0  0  0  0  0  0  0  0  0  0
    6.5412   -1.9962   24.5804 H   0  0  0  0  0  0  0  0  0  0  0  0
    6.6065   -1.4816   21.9458 H   0  0  0  0  0  0  0  0  0  0  0  0
    5.5323   -2.8447   19.7758 H   0  0  0  0  0  0  0  0  0  0  0  0
    0.4795   -4.5586   28.0812 H   0  0  0  0  0  0  0  0  0  0  0  0
   -1.5413   -4.0618   30.0623 H   0  0  0  0  0  0  0  0  0  0  0  0
  1  2  1  0
  2  3  1  0
  3  4  2  0
  4  5  1  0
  5  6  2  0
  6  7  1  0
  7  8  2  0
  8  9  1  0
  9 10  1  0
 10 11  1  0
 11 12  2  0
 11 13  1  0
 13 14  1  0
 14 15  2  0
 15 16  1  0
 16 17  1  0
 17 18  2  0
 18 19  1  0
 19 20  2  0
 20 21  1  0
  8 22  1  0
 22 23  1  0
 23 24  2  0
 24  3  1  0
 23  6  1  0
 21 13  2  0
 20 16  1  0
  1 25  1  0
  1 26  1  0
  1 27  1  0
  4 28  1  0
  5 29  1  0
  9 30  1  0
  9 31  1  0
 14 32  1  0
 15 33  1  0
 17 34  1  0
 18 35  1  0
 22 36  1  0
 24 37  1  0
M  END
>  <Energy>  (454) 
88.059893745114579

>  <compound_id>  (454) 
27116

>  <target_id>  (454) 
1

>  <reference_id>  (454) 
52

>  <inspiration_ids>  (454) 
[52, 106]

>  <energy_score>  (454) 
-21.730871760635182

>  <distance_score>  (454) 
15.623084512650014

>  <path>  (454) 
/opt/xchem-fragalysis-2/maxwin/BulkDock/SCRATCH/511023/C27116-P52/C27116-P52.minimised.mol

>  <scratch_subdir>  (454) 
/opt/xchem-fragalysis-2/maxwin/BulkDock/SCRATCH/511023/C27116-P52

>  <fragmenstein_runtime>  (454) 
22.637869358062744

>  <fragmenstein_outcome>  (454) 
too moved

>  <fragmenstein_mode>  (454) 
expansion

>  <fragmenstein_error>  (454) 


$$$$
C27116-P106
     RDKit          3D

 37 40  0  0  0  0  0  0  0  0999 V2000
    0.5994  -17.2766   33.4937 C   0  0  0  0  0  0  0  0  0  0  0  0
    1.2974  -17.3010   32.2521 O   0  0  0  0  0  0  0  0  0  0  0  0
    0.8067  -16.4896   31.2814 C   0  0  0  0  0  0  0  0  0  0  0  0
   -0.2379  -15.6185   31.3506 C   0  0  0  0  0  0  0  0  0  0  0  0
   -0.7143  -15.2241   30.0446 C   0  0  0  0  0  0  0  0  0  0  0  0
   -0.0915  -15.3113   28.6507 C   0  0  0  0  0  0  0  0  0  0  0  0
   -0.2041  -14.1219   27.2944 N   0  0  0  0  0  0  0  0  0  0  0  0
    1.1290  -13.2443   26.7266 C   0  0  0  0  0  0  0  0  0  0  0  0
    1.2377  -11.2483   27.2942 C   0  0  0  0  0  0  0  0  0  0  0  0
    0.5270   -9.4811   27.5030 O   0  0  0  0  0  0  0  0  0  0  0  0
   -0.0865   -8.1464   26.9198 C   0  0  0  0  0  0  0  0  0  0  0  0
   -0.9233   -8.2636   26.0302 O   0  0  0  0  0  0  0  0  0  0  0  0
    0.2649   -6.4839   27.1640 C   0  0  0  0  0  0  0  0  0  0  0  0
    0.8545   -5.7503   28.3330 C   0  0  0  0  0  0  0  0  0  0  0  0
    1.6598   -4.6994   28.0431 C   0  0  0  0  0  0  0  0  0  0  0  0
    1.7450   -4.2341   26.7314 N   0  0  0  0  0  0  0  0  0  0  0  0
    2.5860   -3.3226   26.1394 C   0  0  0  0  0  0  0  0  0  0  0  0
    2.1690   -3.2487   24.8307 C   0  0  0  0  0  0  0  0  0  0  0  0
    1.0799   -4.0603   24.6256 N   0  0  0  0  0  0  0  0  0  0  0  0
    0.8490   -4.6836   25.7726 C   0  0  0  0  0  0  0  0  0  0  0  0
    0.0214   -5.7589   26.0608 N   0  0  0  0  0  0  0  0  0  0  0  0
    2.3223  -14.5270   27.4762 N   0  0  0  0  0  0  0  0  0  0  0  0
    1.3856  -15.8716   28.4364 C   0  0  0  0  0  0  0  0  0  0  0  0
    1.3489  -16.6951   29.9425 C   0  0  0  0  0  0  0  0  0  0  0  0
   -0.4414  -17.5937   33.3676 H   0  0  0  0  0  0  0  0  0  0  0  0
    1.0873  -17.9893   34.1653 H   0  0  0  0  0  0  0  0  0  0  0  0
    0.6565  -16.2861   33.9574 H   0  0  0  0  0  0  0  0  0  0  0  0
   -0.8248  -15.4429   32.2411 H   0  0  0  0  0  0  0  0  0  0  0  0
   -1.7315  -14.9095   29.8513 H   0  0  0  0  0  0  0  0  0  0  0  0
    0.7265  -11.2797   28.2588 H   0  0  0  0  0  0  0  0  0  0  0  0
    2.1789  -10.9747   27.7661 H   0  0  0  0  0  0  0  0  0  0  0  0
    0.5859   -6.0368   29.3401 H   0  0  0  0  0  0  0  0  0  0  0  0
    2.1963   -4.1327   28.7939 H   0  0  0  0  0  0  0  0  0  0  0  0
    3.3797   -2.8288   26.6791 H   0  0  0  0  0  0  0  0  0  0  0  0
    2.5750   -2.6463   24.0286 H   0  0  0  0  0  0  0  0  0  0  0  0
    3.3232  -14.5150   27.2738 H   0  0  0  0  0  0  0  0  0  0  0  0
    1.0009  -17.7207   29.8074 H   0  0  0  0  0  0  0  0  0  0  0  0
  1  2  1  0
  2  3  1  0
  3  4  2  0
  4  5  1  0
  5  6  2  0
  6  7  1  0
  7  8  2  0
  8  9  1  0
  9 10  1  0
 10 11  1  0
 11 12  2  0
 11 13  1  0
 13 14  1  0
 14 15  2  0
 15 16  1  0
 16 17  1  0
 17 18  2  0
 18 19  1  0
 19 20  2  0
 20 21  1  0
  8 22  1  0
 22 23  1  0
 23 24  2  0
 24  3  1  0
 23  6  1  0
 21 13  2  0
 20 16  1  0
  1 25  1  0
  1 26  1  0
  1 27  1  0
  4 28  1  0
  5 29  1  0
  9 30  1  0
  9 31  1  0
 14 32  1  0
 15 33  1  0
 17 34  1  0
 18 35  1  0
 22 36  1  0
 24 37  1  0
M  END
>  <Energy>  (455) 
807.96295351305616

>  <compound_id>  (455) 
27116

>  <target_id>  (455) 
1

>  <reference_id>  (455) 
106

>  <inspiration_ids>  (455) 
[52, 106]

>  <energy_score>  (455) 
698.1721880073122

>  <distance_score>  (455) 
15.700410846175515

>  <path>  (455) 
/opt/xchem-fragalysis-2/maxwin/BulkDock/SCRATCH/511023/C27116-P106/C27116-P106.minimised.mol

>  <scratch_subdir>  (455) 
/opt/xchem-fragalysis-2/maxwin/BulkDock/SCRATCH/511023/C27116-P106

>  <fragmenstein_runtime>  (455) 
25.137622833251953

>  <fragmenstein_outcome>  (455) 
too moved

>  <fragmenstein_mode>  (455) 
expansion

>  <fragmenstein_error>  (455) 


$$$$
C27117-P52
     RDKit          3D

 36 39  0  0  0  0  0  0  0  0999 V2000
    0.5513  -12.8136   23.0070 C   0  0  0  0  0  0  0  0  0  0  0  0
    1.7133  -11.6286   24.0031 C   0  0  0  0  0  0  0  0  0  0  0  0
    3.5307  -11.1086   23.0255 O   0  0  0  0  0  0  0  0  0  0  0  0
    5.1822  -10.1901   22.3910 C   0  0  0  0  0  0  0  0  0  0  0  0
    5.9526  -11.0548   21.9286 O   0  0  0  0  0  0  0  0  0  0  0  0
    6.1516   -8.2331   22.1984 C   0  0  0  0  0  0  0  0  0  0  0  0
    8.0539   -8.0663   21.9387 C   0  0  0  0  0  0  0  0  0  0  0  0
    9.2577   -7.1097   21.6598 C   0  0  0  0  0  0  0  0  0  0  0  0
    9.4481   -5.4370   21.4944 N   0  0  0  0  0  0  0  0  0  0  0  0
   10.4336   -3.7731   20.7250 C   0  0  0  0  0  0  0  0  0  0  0  0
    9.2815   -3.7673   18.8721 C   0  0  0  0  0  0  0  0  0  0  0  0
    7.3351   -3.8444   20.1174 N   0  0  0  0  0  0  0  0  0  0  0  0
    7.4821   -5.1135   21.5299 C   0  0  0  0  0  0  0  0  0  0  0  0
    6.2992   -6.5372   21.8667 N   0  0  0  0  0  0  0  0  0  0  0  0
    0.7743  -12.5041   25.7495 C   0  0  0  0  0  0  0  0  0  0  0  0
    0.9886  -13.6310   26.9708 N   0  0  0  0  0  0  0  0  0  0  0  0
   -0.8146  -13.9753   27.7869 C   0  0  0  0  0  0  0  0  0  0  0  0
   -1.5676  -13.2623   29.0815 C   0  0  0  0  0  0  0  0  0  0  0  0
   -3.1965  -13.6450   29.3395 C   0  0  0  0  0  0  0  0  0  0  0  0
   -3.9357  -14.8118   28.6919 C   0  0  0  0  0  0  0  0  0  0  0  0
   -3.2448  -15.0320   27.3527 C   0  0  0  0  0  0  0  0  0  0  0  0
   -1.8874  -14.2741   26.8244 C   0  0  0  0  0  0  0  0  0  0  0  0
   -0.9341  -12.9725   26.6467 N   0  0  0  0  0  0  0  0  0  0  0  0
    1.2665  -13.4931   22.4443 H   0  0  0  0  0  0  0  0  0  0  0  0
   -0.1519  -13.1418   23.7077 H   0  0  0  0  0  0  0  0  0  0  0  0
   -0.4243  -12.7266   22.4274 H   0  0  0  0  0  0  0  0  0  0  0  0
    2.5972  -12.1757   24.5335 H   0  0  0  0  0  0  0  0  0  0  0  0
    8.3394   -9.1275   21.9600 H   0  0  0  0  0  0  0  0  0  0  0  0
   10.2308   -7.5739   21.5068 H   0  0  0  0  0  0  0  0  0  0  0  0
   10.1830   -3.0771   21.5486 H   0  0  0  0  0  0  0  0  0  0  0  0
    9.1595   -4.2596   17.9366 H   0  0  0  0  0  0  0  0  0  0  0  0
   -0.9288  -12.9499   29.9107 H   0  0  0  0  0  0  0  0  0  0  0  0
   -3.6572  -12.6884   29.0514 H   0  0  0  0  0  0  0  0  0  0  0  0
   -4.7447  -15.3754   29.1287 H   0  0  0  0  0  0  0  0  0  0  0  0
   -3.3405  -15.9808   26.8811 H   0  0  0  0  0  0  0  0  0  0  0  0
   -1.2951  -12.3220   27.3290 H   0  0  0  0  0  0  0  0  0  0  0  0
  1  2  1  0
  2  3  1  0
  3  4  1  0
  4  5  2  0
  4  6  1  0
  6  7  1  0
  7  8  2  0
  8  9  1  0
  9 10  1  0
 10 11  2  0
 11 12  1  0
 12 13  2  0
 13 14  1  0
  2 15  1  0
 15 16  2  0
 16 17  1  0
 17 18  2  0
 18 19  1  0
 19 20  2  0
 20 21  1  0
 21 22  2  0
 22 23  1  0
 14  6  2  0
 23 15  1  0
 13  9  1  0
 22 17  1  0
  1 24  1  0
  1 25  1  0
  1 26  1  0
  2 27  1  0
  7 28  1  0
  8 29  1  0
 10 30  1  0
 11 31  1  0
 18 32  1  0
 19 33  1  0
 20 34  1  0
 21 35  1  0
 23 36  1  0
M  END
>  <Energy>  (456) 
2952.2921956260129

>  <compound_id>  (456) 
27117

>  <target_id>  (456) 
1

>  <reference_id>  (456) 
52

>  <inspiration_ids>  (456) 
[52, 106]

>  <energy_score>  (456) 
2837.77067373152

>  <distance_score>  (456) 
12.209647059395397

>  <path>  (456) 
/opt/xchem-fragalysis-2/maxwin/BulkDock/SCRATCH/511023/C27117-P52/C27117-P52.minimised.mol

>  <scratch_subdir>  (456) 
/opt/xchem-fragalysis-2/maxwin/BulkDock/SCRATCH/511023/C27117-P52

>  <fragmenstein_runtime>  (456) 
15.380253553390503

>  <fragmenstein_outcome>  (456) 
too moved

>  <fragmenstein_mode>  (456) 
expansion

>  <fragmenstein_error>  (456) 


$$$$
C27117-P106
     RDKit          3D

 36 39  0  0  0  0  0  0  0  0999 V2000
   -0.7243  -10.1546   29.2194 C   0  0  0  0  0  0  0  0  0  0  0  0
   -1.9169  -10.5798   30.1616 C   0  0  0  0  0  0  0  0  0  0  0  0
   -2.0137   -9.3582   31.2129 O   0  0  0  0  0  0  0  0  0  0  0  0
   -1.4736   -8.0726   31.3673 C   0  0  0  0  0  0  0  0  0  0  0  0
   -1.6135   -7.5286   32.4657 O   0  0  0  0  0  0  0  0  0  0  0  0
   -0.6909   -7.0709   30.2466 C   0  0  0  0  0  0  0  0  0  0  0  0
    0.3160   -6.0744   30.8402 C   0  0  0  0  0  0  0  0  0  0  0  0
    0.9321   -5.2129   30.0020 C   0  0  0  0  0  0  0  0  0  0  0  0
    0.6372   -5.2435   28.6455 N   0  0  0  0  0  0  0  0  0  0  0  0
    1.1315   -4.4904   27.6086 C   0  0  0  0  0  0  0  0  0  0  0  0
    0.4580   -4.9380   26.4973 C   0  0  0  0  0  0  0  0  0  0  0  0
   -0.3757   -5.9859   26.8289 N   0  0  0  0  0  0  0  0  0  0  0  0
   -0.2827   -6.1583   28.1319 C   0  0  0  0  0  0  0  0  0  0  0  0
   -0.9472   -7.0655   28.9548 N   0  0  0  0  0  0  0  0  0  0  0  0
   -3.3205  -11.7771   29.9596 C   0  0  0  0  0  0  0  0  0  0  0  0
   -4.6622  -12.0372   30.2329 N   0  0  0  0  0  0  0  0  0  0  0  0
   -4.9555  -13.4791   30.0728 C   0  0  0  0  0  0  0  0  0  0  0  0
   -6.0567  -14.5794   30.1640 C   0  0  0  0  0  0  0  0  0  0  0  0
   -5.7537  -16.0820   30.1335 C   0  0  0  0  0  0  0  0  0  0  0  0
   -4.4021  -16.6573   29.9469 C   0  0  0  0  0  0  0  0  0  0  0  0
   -3.2410  -15.7511   29.8217 C   0  0  0  0  0  0  0  0  0  0  0  0
   -3.5933  -14.1005   29.8661 C   0  0  0  0  0  0  0  0  0  0  0  0
   -2.9355  -12.9593   29.5576 N   0  0  0  0  0  0  0  0  0  0  0  0
    0.2271  -10.6318   29.4792 H   0  0  0  0  0  0  0  0  0  0  0  0
   -0.8523  -10.1942   28.1485 H   0  0  0  0  0  0  0  0  0  0  0  0
   -0.4276   -9.1484   29.4115 H   0  0  0  0  0  0  0  0  0  0  0  0
   -1.4068  -11.3636   30.6041 H   0  0  0  0  0  0  0  0  0  0  0  0
    0.4738   -6.0844   31.9127 H   0  0  0  0  0  0  0  0  0  0  0  0
    1.6422   -4.4668   30.3388 H   0  0  0  0  0  0  0  0  0  0  0  0
    1.8619   -3.7075   27.7475 H   0  0  0  0  0  0  0  0  0  0  0  0
    0.5369   -4.5970   25.4723 H   0  0  0  0  0  0  0  0  0  0  0  0
   -7.0830  -14.3086   30.3448 H   0  0  0  0  0  0  0  0  0  0  0  0
   -6.5933  -16.7679   30.2535 H   0  0  0  0  0  0  0  0  0  0  0  0
   -4.2700  -17.7354   29.9150 H   0  0  0  0  0  0  0  0  0  0  0  0
   -2.2185  -16.0419   29.6164 H   0  0  0  0  0  0  0  0  0  0  0  0
   -2.0275  -13.1699   29.3108 H   0  0  0  0  0  0  0  0  0  0  0  0
  1  2  1  0
  2  3  1  0
  3  4  1  0
  4  5  2  0
  4  6  1  0
  6  7  1  0
  7  8  2  0
  8  9  1  0
  9 10  1  0
 10 11  2  0
 11 12  1  0
 12 13  2  0
 13 14  1  0
  2 15  1  0
 15 16  2  0
 16 17  1  0
 17 18  2  0
 18 19  1  0
 19 20  2  0
 20 21  1  0
 21 22  2  0
 22 23  1  0
 14  6  2  0
 23 15  1  0
 13  9  1  0
 22 17  1  0
  1 24  1  0
  1 25  1  0
  1 26  1  0
  2 27  1  0
  7 28  1  0
  8 29  1  0
 10 30  1  0
 11 31  1  0
 18 32  1  0
 19 33  1  0
 20 34  1  0
 21 35  1  0
 23 36  1  0
M  END
>  <Energy>  (457) 
290.19322772441529

>  <compound_id>  (457) 
27117

>  <target_id>  (457) 
1

>  <reference_id>  (457) 
106

>  <inspiration_ids>  (457) 
[52, 106]

>  <energy_score>  (457) 
175.67170582993606

>  <distance_score>  (457) 
15.958294903200406

>  <path>  (457) 
/opt/xchem-fragalysis-2/maxwin/BulkDock/SCRATCH/511023/C27117-P106/C27117-P106.minimised.mol

>  <scratch_subdir>  (457) 
/opt/xchem-fragalysis-2/maxwin/BulkDock/SCRATCH/511023/C27117-P106

>  <fragmenstein_runtime>  (457) 
14.344145774841309

>  <fragmenstein_outcome>  (457) 
too moved

>  <fragmenstein_mode>  (457) 
expansion

>  <fragmenstein_error>  (457) 


$$$$
C27106-P52
     RDKit          3D

 34 37  0  0  0  0  0  0  0  0999 V2000
    0.4943   -9.3685   28.0544 O   0  0  0  0  0  0  0  0  0  0  0  0
    0.8516   -9.5649   26.9561 C   0  0  0  0  0  0  0  0  0  0  0  0
   -0.0135  -11.1391   26.1203 N   0  0  0  0  0  0  0  0  0  0  0  0
   -1.3912  -12.6964   26.9740 C   0  0  0  0  0  0  0  0  0  0  0  0
   -2.8045  -12.9134   28.4874 C   0  0  0  0  0  0  0  0  0  0  0  0
   -3.3349  -14.1762   28.9361 N   0  0  0  0  0  0  0  0  0  0  0  0
   -4.7384  -14.6830   29.4276 C   0  0  0  0  0  0  0  0  0  0  0  0
   -5.2376  -15.9720   29.5334 C   0  0  0  0  0  0  0  0  0  0  0  0
   -4.4603  -17.0609   29.5194 F   0  0  0  0  0  0  0  0  0  0  0  0
   -6.5675  -16.0709   29.1765 C   0  0  0  0  0  0  0  0  0  0  0  0
   -7.4201  -14.9586   29.0261 C   0  0  0  0  0  0  0  0  0  0  0  0
   -7.0282  -13.6305   29.2487 C   0  0  0  0  0  0  0  0  0  0  0  0
   -5.6670  -13.4542   29.4648 C   0  0  0  0  0  0  0  0  0  0  0  0
   -4.3805  -12.1779   29.0564 N   0  0  0  0  0  0  0  0  0  0  0  0
    2.2379   -8.3743   26.5983 C   0  0  0  0  0  0  0  0  0  0  0  0
    2.7745   -7.9228   28.0289 C   0  0  0  0  0  0  0  0  0  0  0  0
    4.0433   -7.4538   28.3791 C   0  0  0  0  0  0  0  0  0  0  0  0
    4.9910   -7.2380   27.4272 N   0  0  0  0  0  0  0  0  0  0  0  0
    6.2182   -6.6329   27.3899 C   0  0  0  0  0  0  0  0  0  0  0  0
    6.5291   -6.5562   26.0501 C   0  0  0  0  0  0  0  0  0  0  0  0
    5.5283   -7.1201   25.3032 N   0  0  0  0  0  0  0  0  0  0  0  0
    4.6534   -7.5945   26.1791 C   0  0  0  0  0  0  0  0  0  0  0  0
    3.4617   -8.2792   25.9748 N   0  0  0  0  0  0  0  0  0  0  0  0
    0.4197  -11.2918   25.1883 H   0  0  0  0  0  0  0  0  0  0  0  0
   -2.1054  -13.0855   26.1620 H   0  0  0  0  0  0  0  0  0  0  0  0
   -1.0168  -13.6306   27.3115 H   0  0  0  0  0  0  0  0  0  0  0  0
   -6.8676  -17.0409   28.7935 H   0  0  0  0  0  0  0  0  0  0  0  0
   -8.3943  -15.1097   28.5601 H   0  0  0  0  0  0  0  0  0  0  0  0
   -7.6752  -12.8525   28.9181 H   0  0  0  0  0  0  0  0  0  0  0  0
   -4.6651  -11.2509   28.7516 H   0  0  0  0  0  0  0  0  0  0  0  0
    2.0378   -8.0433   28.8246 H   0  0  0  0  0  0  0  0  0  0  0  0
    4.3040   -7.2155   29.4052 H   0  0  0  0  0  0  0  0  0  0  0  0
    6.7253   -6.2923   28.2805 H   0  0  0  0  0  0  0  0  0  0  0  0
    7.4079   -6.1228   25.5905 H   0  0  0  0  0  0  0  0  0  0  0  0
  1  2  2  0
  2  3  1  0
  3  4  1  0
  4  5  1  0
  5  6  2  0
  6  7  1  0
  7  8  2  0
  8  9  1  0
  8 10  1  0
 10 11  2  0
 11 12  1  0
 12 13  2  0
 13 14  1  0
  2 15  1  0
 15 16  1  0
 16 17  2  0
 17 18  1  0
 18 19  1  0
 19 20  2  0
 20 21  1  0
 21 22  2  0
 22 23  1  0
 14  5  1  0
 23 15  2  0
 13  7  1  0
 22 18  1  0
  3 24  1  0
  4 25  1  0
  4 26  1  0
 10 27  1  0
 11 28  1  0
 12 29  1  0
 14 30  1  0
 16 31  1  0
 17 32  1  0
 19 33  1  0
 20 34  1  0
M  END
>  <Energy>  (458) 
885.55073158873756

>  <compound_id>  (458) 
27106

>  <target_id>  (458) 
1

>  <reference_id>  (458) 
52

>  <inspiration_ids>  (458) 
[52, 106]

>  <energy_score>  (458) 
790.798040645529

>  <distance_score>  (458) 
13.985261429866114

>  <path>  (458) 
/opt/xchem-fragalysis-2/maxwin/BulkDock/SCRATCH/511023/C27106-P52/C27106-P52.minimised.mol

>  <scratch_subdir>  (458) 
/opt/xchem-fragalysis-2/maxwin/BulkDock/SCRATCH/511023/C27106-P52

>  <fragmenstein_runtime>  (458) 
13.412687540054321

>  <fragmenstein_outcome>  (458) 
too moved

>  <fragmenstein_mode>  (458) 
expansion

>  <fragmenstein_error>  (458) 


$$$$
C27106-P106
     RDKit          3D

 34 37  0  0  0  0  0  0  0  0999 V2000
    4.2216  -16.7279   21.2200 O   0  0  0  0  0  0  0  0  0  0  0  0
    3.3801  -15.8886   21.4108 C   0  0  0  0  0  0  0  0  0  0  0  0
    1.9542  -16.0234   21.7699 N   0  0  0  0  0  0  0  0  0  0  0  0
    1.0888  -17.2397   21.9094 C   0  0  0  0  0  0  0  0  0  0  0  0
    0.0255  -17.5122   23.0465 C   0  0  0  0  0  0  0  0  0  0  0  0
   -1.2686  -17.1763   23.1008 N   0  0  0  0  0  0  0  0  0  0  0  0
   -1.8899  -18.0077   24.0572 C   0  0  0  0  0  0  0  0  0  0  0  0
   -3.2233  -18.1108   24.5205 C   0  0  0  0  0  0  0  0  0  0  0  0
   -4.1735  -17.3083   24.0235 F   0  0  0  0  0  0  0  0  0  0  0  0
   -3.5738  -19.0485   25.5087 C   0  0  0  0  0  0  0  0  0  0  0  0
   -2.6059  -19.8880   26.0532 C   0  0  0  0  0  0  0  0  0  0  0  0
   -1.2734  -19.8102   25.6170 C   0  0  0  0  0  0  0  0  0  0  0  0
   -0.9517  -18.8611   24.6233 C   0  0  0  0  0  0  0  0  0  0  0  0
    0.2344  -18.5186   23.9956 N   0  0  0  0  0  0  0  0  0  0  0  0
    3.9948  -14.4070   21.1286 C   0  0  0  0  0  0  0  0  0  0  0  0
    4.9435  -13.8826   22.1972 C   0  0  0  0  0  0  0  0  0  0  0  0
    5.6543  -12.7745   21.9130 C   0  0  0  0  0  0  0  0  0  0  0  0
    5.4719  -12.1405   20.6946 N   0  0  0  0  0  0  0  0  0  0  0  0
    6.0786  -11.0165   20.1835 C   0  0  0  0  0  0  0  0  0  0  0  0
    5.5038  -10.8321   18.9508 C   0  0  0  0  0  0  0  0  0  0  0  0
    4.5739  -11.8126   18.6977 N   0  0  0  0  0  0  0  0  0  0  0  0
    4.5599  -12.6168   19.7517 C   0  0  0  0  0  0  0  0  0  0  0  0
    3.8337  -13.7814   19.9758 N   0  0  0  0  0  0  0  0  0  0  0  0
    1.5192  -15.0953   21.7686 H   0  0  0  0  0  0  0  0  0  0  0  0
    0.5268  -17.2822   20.9679 H   0  0  0  0  0  0  0  0  0  0  0  0
    1.7757  -18.0951   21.8931 H   0  0  0  0  0  0  0  0  0  0  0  0
   -4.6053  -19.1047   25.8403 H   0  0  0  0  0  0  0  0  0  0  0  0
   -2.8810  -20.6048   26.8234 H   0  0  0  0  0  0  0  0  0  0  0  0
   -0.5128  -20.4580   26.0427 H   0  0  0  0  0  0  0  0  0  0  0  0
    1.1175  -18.9852   24.1392 H   0  0  0  0  0  0  0  0  0  0  0  0
    5.0390  -14.4473   23.1147 H   0  0  0  0  0  0  0  0  0  0  0  0
    6.3767  -12.3478   22.5956 H   0  0  0  0  0  0  0  0  0  0  0  0
    6.8348  -10.4703   20.7264 H   0  0  0  0  0  0  0  0  0  0  0  0
    5.6987  -10.0542   18.2260 H   0  0  0  0  0  0  0  0  0  0  0  0
  1  2  2  0
  2  3  1  0
  3  4  1  0
  4  5  1  0
  5  6  2  0
  6  7  1  0
  7  8  2  0
  8  9  1  0
  8 10  1  0
 10 11  2  0
 11 12  1  0
 12 13  2  0
 13 14  1  0
  2 15  1  0
 15 16  1  0
 16 17  2  0
 17 18  1  0
 18 19  1  0
 19 20  2  0
 20 21  1  0
 21 22  2  0
 22 23  1  0
 14  5  1  0
 23 15  2  0
 13  7  1  0
 22 18  1  0
  3 24  1  0
  4 25  1  0
  4 26  1  0
 10 27  1  0
 11 28  1  0
 12 29  1  0
 14 30  1  0
 16 31  1  0
 17 32  1  0
 19 33  1  0
 20 34  1  0
M  END
>  <Energy>  (459) 
108.41419753782881

>  <compound_id>  (459) 
27106

>  <target_id>  (459) 
1

>  <reference_id>  (459) 
106

>  <inspiration_ids>  (459) 
[52, 106]

>  <energy_score>  (459) 
13.661506594616583

>  <distance_score>  (459) 
14.646015485867485

>  <path>  (459) 
/opt/xchem-fragalysis-2/maxwin/BulkDock/SCRATCH/511023/C27106-P106/C27106-P106.minimised.mol

>  <scratch_subdir>  (459) 
/opt/xchem-fragalysis-2/maxwin/BulkDock/SCRATCH/511023/C27106-P106

>  <fragmenstein_runtime>  (459) 
22.609920501708984

>  <fragmenstein_outcome>  (459) 
too moved

>  <fragmenstein_mode>  (459) 
expansion

>  <fragmenstein_error>  (459) 


$$$$
C27112-P52
     RDKit          3D

 37 40  0  0  0  0  0  0  0  0999 V2000
   -0.0014  -17.3879   26.3633 C   0  0  0  0  0  0  0  0  0  0  0  0
   -1.2652  -17.3317   25.6136 N   0  0  0  0  0  0  0  0  0  0  0  0
   -2.2382  -16.1654   25.6556 C   0  0  0  0  0  0  0  0  0  0  0  0
   -2.7664  -14.5484   24.6473 C   0  0  0  0  0  0  0  0  0  0  0  0
   -2.5428  -14.3015   23.2519 N   0  0  0  0  0  0  0  0  0  0  0  0
   -1.2527  -13.5198   22.4351 C   0  0  0  0  0  0  0  0  0  0  0  0
   -0.3239  -12.9442   22.9497 O   0  0  0  0  0  0  0  0  0  0  0  0
   -0.9896  -13.5991   20.4871 C   0  0  0  0  0  0  0  0  0  0  0  0
   -0.1629  -14.7316   19.8961 C   0  0  0  0  0  0  0  0  0  0  0  0
    0.6736  -14.4462   18.8717 C   0  0  0  0  0  0  0  0  0  0  0  0
    0.6730  -13.1769   18.3045 N   0  0  0  0  0  0  0  0  0  0  0  0
    1.5253  -12.5919   17.3944 C   0  0  0  0  0  0  0  0  0  0  0  0
    1.0596  -11.3083   17.2386 C   0  0  0  0  0  0  0  0  0  0  0  0
   -0.0685  -11.1073   17.9995 N   0  0  0  0  0  0  0  0  0  0  0  0
   -0.2944  -12.2410   18.6530 C   0  0  0  0  0  0  0  0  0  0  0  0
   -1.1568  -12.4912   19.7099 N   0  0  0  0  0  0  0  0  0  0  0  0
   -2.6690  -16.5235   26.8536 N   0  0  0  0  0  0  0  0  0  0  0  0
   -2.7296  -18.1156   26.8814 C   0  0  0  0  0  0  0  0  0  0  0  0
   -3.5239  -19.0584   27.6008 C   0  0  0  0  0  0  0  0  0  0  0  0
   -3.4585  -20.4081   27.2346 C   0  0  0  0  0  0  0  0  0  0  0  0
   -2.6038  -20.8173   26.2100 C   0  0  0  0  0  0  0  0  0  0  0  0
   -1.8022  -19.8983   25.5069 C   0  0  0  0  0  0  0  0  0  0  0  0
   -1.9540  -18.5482   25.8454 C   0  0  0  0  0  0  0  0  0  0  0  0
    0.7777  -17.6844   25.6560 H   0  0  0  0  0  0  0  0  0  0  0  0
   -0.0178  -18.1695   27.1312 H   0  0  0  0  0  0  0  0  0  0  0  0
    0.2019  -16.4471   26.8616 H   0  0  0  0  0  0  0  0  0  0  0  0
   -3.7858  -14.7523   24.4567 H   0  0  0  0  0  0  0  0  0  0  0  0
   -2.5376  -13.6114   25.1982 H   0  0  0  0  0  0  0  0  0  0  0  0
   -3.2188  -14.6218   22.5750 H   0  0  0  0  0  0  0  0  0  0  0  0
   -0.2623  -15.7125   20.3190 H   0  0  0  0  0  0  0  0  0  0  0  0
    1.3569  -15.1715   18.4523 H   0  0  0  0  0  0  0  0  0  0  0  0
    2.3687  -13.1197   16.9767 H   0  0  0  0  0  0  0  0  0  0  0  0
    1.4638  -10.5190   16.6187 H   0  0  0  0  0  0  0  0  0  0  0  0
   -4.2262  -18.7169   28.3509 H   0  0  0  0  0  0  0  0  0  0  0  0
   -4.0908  -21.1397   27.7240 H   0  0  0  0  0  0  0  0  0  0  0  0
   -2.5536  -21.8728   25.9492 H   0  0  0  0  0  0  0  0  0  0  0  0
   -1.1053  -20.2246   24.7441 H   0  0  0  0  0  0  0  0  0  0  0  0
  1  2  1  0
  2  3  1  0
  3  4  1  0
  4  5  1  0
  5  6  1  0
  6  7  2  0
  6  8  1  0
  8  9  1  0
  9 10  2  0
 10 11  1  0
 11 12  1  0
 12 13  2  0
 13 14  1  0
 14 15  2  0
 15 16  1  0
  3 17  2  0
 17 18  1  0
 18 19  2  0
 19 20  1  0
 20 21  2  0
 21 22  1  0
 22 23  2  0
 23  2  1  0
 16  8  2  0
 23 18  1  0
 15 11  1  0
  1 24  1  0
  1 25  1  0
  1 26  1  0
  4 27  1  0
  4 28  1  0
  5 29  1  0
  9 30  1  0
 10 31  1  0
 12 32  1  0
 13 33  1  0
 19 34  1  0
 20 35  1  0
 21 36  1  0
 22 37  1  0
M  END
>  <Energy>  (460) 
322.21183918448344

>  <compound_id>  (460) 
27112

>  <target_id>  (460) 
1

>  <reference_id>  (460) 
52

>  <inspiration_ids>  (460) 
[52, 106]

>  <energy_score>  (460) 
240.8683336709796

>  <distance_score>  (460) 
15.386154398244065

>  <path>  (460) 
/opt/xchem-fragalysis-2/maxwin/BulkDock/SCRATCH/511023/C27112-P52/C27112-P52.minimised.mol

>  <scratch_subdir>  (460) 
/opt/xchem-fragalysis-2/maxwin/BulkDock/SCRATCH/511023/C27112-P52

>  <fragmenstein_runtime>  (460) 
35.645931243896484

>  <fragmenstein_outcome>  (460) 
too moved

>  <fragmenstein_mode>  (460) 
expansion

>  <fragmenstein_error>  (460) 


$$$$
C27112-P106
     RDKit          3D

 37 40  0  0  0  0  0  0  0  0999 V2000
   -2.8587  -17.5203   26.0039 C   0  0  0  0  0  0  0  0  0  0  0  0
   -2.3996  -16.6640   27.1095 N   0  0  0  0  0  0  0  0  0  0  0  0
   -1.8603  -15.0175   27.0202 C   0  0  0  0  0  0  0  0  0  0  0  0
   -1.1020  -13.7164   25.5779 C   0  0  0  0  0  0  0  0  0  0  0  0
    0.9316  -13.7250   25.5485 N   0  0  0  0  0  0  0  0  0  0  0  0
    2.1223  -12.9850   24.3737 C   0  0  0  0  0  0  0  0  0  0  0  0
    1.8100  -12.2539   23.4692 O   0  0  0  0  0  0  0  0  0  0  0  0
    3.9712  -13.3982   24.2322 C   0  0  0  0  0  0  0  0  0  0  0  0
    4.1121  -14.0008   22.8014 C   0  0  0  0  0  0  0  0  0  0  0  0
    5.0986  -13.5770   21.9919 C   0  0  0  0  0  0  0  0  0  0  0  0
    6.0830  -12.7760   22.5164 N   0  0  0  0  0  0  0  0  0  0  0  0
    7.1031  -12.0883   21.9061 C   0  0  0  0  0  0  0  0  0  0  0  0
    7.7489  -11.4379   22.9268 C   0  0  0  0  0  0  0  0  0  0  0  0
    7.1641  -11.7385   24.1372 N   0  0  0  0  0  0  0  0  0  0  0  0
    6.1609  -12.5723   23.8870 C   0  0  0  0  0  0  0  0  0  0  0  0
    5.1601  -13.0395   24.7534 N   0  0  0  0  0  0  0  0  0  0  0  0
   -1.4868  -15.0923   28.3425 N   0  0  0  0  0  0  0  0  0  0  0  0
   -1.9301  -16.1889   29.1383 C   0  0  0  0  0  0  0  0  0  0  0  0
   -1.7408  -16.5107   30.5014 C   0  0  0  0  0  0  0  0  0  0  0  0
   -2.4178  -17.6038   31.0857 C   0  0  0  0  0  0  0  0  0  0  0  0
   -3.2385  -18.4183   30.3174 C   0  0  0  0  0  0  0  0  0  0  0  0
   -3.3368  -18.1935   28.9446 C   0  0  0  0  0  0  0  0  0  0  0  0
   -2.6482  -17.0811   28.4019 C   0  0  0  0  0  0  0  0  0  0  0  0
   -2.0614  -18.2375   25.8095 H   0  0  0  0  0  0  0  0  0  0  0  0
   -3.7420  -18.0860   26.2958 H   0  0  0  0  0  0  0  0  0  0  0  0
   -3.0994  -16.8878   25.1546 H   0  0  0  0  0  0  0  0  0  0  0  0
   -1.2396  -14.4558   24.7539 H   0  0  0  0  0  0  0  0  0  0  0  0
   -1.7737  -12.8465   25.4634 H   0  0  0  0  0  0  0  0  0  0  0  0
    1.4301  -14.2172   26.2555 H   0  0  0  0  0  0  0  0  0  0  0  0
    3.3438  -14.6840   22.4721 H   0  0  0  0  0  0  0  0  0  0  0  0
    5.1673  -13.8566   20.9495 H   0  0  0  0  0  0  0  0  0  0  0  0
    7.2563  -12.1106   20.8375 H   0  0  0  0  0  0  0  0  0  0  0  0
    8.6034  -10.7765   22.8663 H   0  0  0  0  0  0  0  0  0  0  0  0
   -1.0931  -15.8903   31.1114 H   0  0  0  0  0  0  0  0  0  0  0  0
   -2.3021  -17.7958   32.1497 H   0  0  0  0  0  0  0  0  0  0  0  0
   -3.7777  -19.2450   30.7757 H   0  0  0  0  0  0  0  0  0  0  0  0
   -3.9243  -18.8672   28.3318 H   0  0  0  0  0  0  0  0  0  0  0  0
  1  2  1  0
  2  3  1  0
  3  4  1  0
  4  5  1  0
  5  6  1  0
  6  7  2  0
  6  8  1  0
  8  9  1  0
  9 10  2  0
 10 11  1  0
 11 12  1  0
 12 13  2  0
 13 14  1  0
 14 15  2  0
 15 16  1  0
  3 17  2  0
 17 18  1  0
 18 19  2  0
 19 20  1  0
 20 21  2  0
 21 22  1  0
 22 23  2  0
 23  2  1  0
 16  8  2  0
 23 18  1  0
 15 11  1  0
  1 24  1  0
  1 25  1  0
  1 26  1  0
  4 27  1  0
  4 28  1  0
  5 29  1  0
  9 30  1  0
 10 31  1  0
 12 32  1  0
 13 33  1  0
 19 34  1  0
 20 35  1  0
 21 36  1  0
 22 37  1  0
M  END
>  <Energy>  (461) 
447.34943051022964

>  <compound_id>  (461) 
27112

>  <target_id>  (461) 
1

>  <reference_id>  (461) 
106

>  <inspiration_ids>  (461) 
[52, 106]

>  <energy_score>  (461) 
366.00592499672297

>  <distance_score>  (461) 
13.759522969074022

>  <path>  (461) 
/opt/xchem-fragalysis-2/maxwin/BulkDock/SCRATCH/511023/C27112-P106/C27112-P106.minimised.mol

>  <scratch_subdir>  (461) 
/opt/xchem-fragalysis-2/maxwin/BulkDock/SCRATCH/511023/C27112-P106

>  <fragmenstein_runtime>  (461) 
28.92104196548462

>  <fragmenstein_outcome>  (461) 
too moved

>  <fragmenstein_mode>  (461) 
expansion

>  <fragmenstein_error>  (461) 


$$$$
C27118-P52
     RDKit          3D

 31 34  0  0  0  0  0  0  0  0999 V2000
    5.8267  -13.7240   27.4077 O   0  0  0  0  0  0  0  0  0  0  0  0
    5.4644  -14.0157   26.3002 C   0  0  0  0  0  0  0  0  0  0  0  0
    4.5250  -15.0432   25.8421 N   0  0  0  0  0  0  0  0  0  0  0  0
    3.6935  -15.9348   26.5717 C   0  0  0  0  0  0  0  0  0  0  0  0
    3.3286  -15.8991   27.8470 N   0  0  0  0  0  0  0  0  0  0  0  0
    2.4031  -16.9248   28.0874 C   0  0  0  0  0  0  0  0  0  0  0  0
    1.7146  -17.3592   29.2452 C   0  0  0  0  0  0  0  0  0  0  0  0
    1.9996  -16.4580   30.6688 Cl  0  0  0  0  0  0  0  0  0  0  0  0
    0.8592  -18.4688   29.2237 C   0  0  0  0  0  0  0  0  0  0  0  0
    0.6396  -19.1358   28.0200 C   0  0  0  0  0  0  0  0  0  0  0  0
    1.2797  -18.7162   26.8382 C   0  0  0  0  0  0  0  0  0  0  0  0
    2.1707  -17.6223   26.9111 C   0  0  0  0  0  0  0  0  0  0  0  0
    2.9961  -16.9932   25.9841 N   0  0  0  0  0  0  0  0  0  0  0  0
    6.0796  -13.0224   25.1637 C   0  0  0  0  0  0  0  0  0  0  0  0
    7.1244  -12.0293   25.6920 C   0  0  0  0  0  0  0  0  0  0  0  0
    7.6435  -11.1335   24.8365 C   0  0  0  0  0  0  0  0  0  0  0  0
    7.2224  -11.1431   23.5222 N   0  0  0  0  0  0  0  0  0  0  0  0
    7.5989  -10.3358   22.4753 C   0  0  0  0  0  0  0  0  0  0  0  0
    6.8699  -10.7837   21.4030 C   0  0  0  0  0  0  0  0  0  0  0  0
    6.0679  -11.8411   21.7707 N   0  0  0  0  0  0  0  0  0  0  0  0
    6.2768  -12.0651   23.0598 C   0  0  0  0  0  0  0  0  0  0  0  0
    5.7047  -13.0248   23.9018 N   0  0  0  0  0  0  0  0  0  0  0  0
    4.5224  -15.0615   24.8286 H   0  0  0  0  0  0  0  0  0  0  0  0
    0.3566  -18.7910   30.1309 H   0  0  0  0  0  0  0  0  0  0  0  0
   -0.0363  -19.9882   27.9911 H   0  0  0  0  0  0  0  0  0  0  0  0
    1.1155  -19.2465   25.9046 H   0  0  0  0  0  0  0  0  0  0  0  0
    3.0827  -17.2573   25.0158 H   0  0  0  0  0  0  0  0  0  0  0  0
    7.4012  -12.0758   26.7384 H   0  0  0  0  0  0  0  0  0  0  0  0
    8.3791  -10.3955   25.1283 H   0  0  0  0  0  0  0  0  0  0  0  0
    8.3267   -9.5465   22.5868 H   0  0  0  0  0  0  0  0  0  0  0  0
    6.8725  -10.4153   20.3852 H   0  0  0  0  0  0  0  0  0  0  0  0
  1  2  2  0
  2  3  1  0
  3  4  1  0
  4  5  2  0
  5  6  1  0
  6  7  2  0
  7  8  1  0
  7  9  1  0
  9 10  2  0
 10 11  1  0
 11 12  2  0
 12 13  1  0
  2 14  1  0
 14 15  1  0
 15 16  2  0
 16 17  1  0
 17 18  1  0
 18 19  2  0
 19 20  1  0
 20 21  2  0
 21 22  1  0
 13  4  1  0
 22 14  2  0
 12  6  1  0
 21 17  1  0
  3 23  1  0
  9 24  1  0
 10 25  1  0
 11 26  1  0
 13 27  1  0
 15 28  1  0
 16 29  1  0
 18 30  1  0
 19 31  1  0
M  END
>  <Energy>  (462) 
77.972277751207614

>  <compound_id>  (462) 
27118

>  <target_id>  (462) 
1

>  <reference_id>  (462) 
52

>  <inspiration_ids>  (462) 
[52, 106]

>  <energy_score>  (462) 
-29.11719033776967

>  <distance_score>  (462) 
15.196558932597574

>  <path>  (462) 
/opt/xchem-fragalysis-2/maxwin/BulkDock/SCRATCH/511023/C27118-P52/C27118-P52.minimised.mol

>  <scratch_subdir>  (462) 
/opt/xchem-fragalysis-2/maxwin/BulkDock/SCRATCH/511023/C27118-P52

>  <fragmenstein_runtime>  (462) 
10.82551908493042

>  <fragmenstein_outcome>  (462) 
too moved

>  <fragmenstein_mode>  (462) 
expansion

>  <fragmenstein_error>  (462) 


$$$$
C27118-P106
     RDKit          3D

 31 34  0  0  0  0  0  0  0  0999 V2000
    2.9609  -17.3432   20.7879 O   0  0  0  0  0  0  0  0  0  0  0  0
    2.2045  -16.4995   20.3842 C   0  0  0  0  0  0  0  0  0  0  0  0
    0.7306  -16.4654   20.3558 N   0  0  0  0  0  0  0  0  0  0  0  0
   -0.2302  -17.3709   20.8793 C   0  0  0  0  0  0  0  0  0  0  0  0
   -0.0734  -18.5647   21.4372 N   0  0  0  0  0  0  0  0  0  0  0  0
   -1.2562  -18.8987   22.1251 C   0  0  0  0  0  0  0  0  0  0  0  0
   -1.5978  -19.9509   23.0114 C   0  0  0  0  0  0  0  0  0  0  0  0
   -0.3932  -21.1326   23.2772 Cl  0  0  0  0  0  0  0  0  0  0  0  0
   -2.8369  -19.9958   23.6664 C   0  0  0  0  0  0  0  0  0  0  0  0
   -3.7681  -18.9871   23.4302 C   0  0  0  0  0  0  0  0  0  0  0  0
   -3.4821  -17.9352   22.5355 C   0  0  0  0  0  0  0  0  0  0  0  0
   -2.2164  -17.9152   21.9026 C   0  0  0  0  0  0  0  0  0  0  0  0
   -1.5818  -17.0342   21.0288 N   0  0  0  0  0  0  0  0  0  0  0  0
    2.9938  -15.1444   19.9000 C   0  0  0  0  0  0  0  0  0  0  0  0
    4.1780  -14.7627   20.7957 C   0  0  0  0  0  0  0  0  0  0  0  0
    4.9259  -13.7006   20.4496 C   0  0  0  0  0  0  0  0  0  0  0  0
    4.5995  -12.9931   19.3093 N   0  0  0  0  0  0  0  0  0  0  0  0
    5.2040  -11.8881   18.7569 C   0  0  0  0  0  0  0  0  0  0  0  0
    4.4585  -11.5955   17.6430 C   0  0  0  0  0  0  0  0  0  0  0  0
    3.4195  -12.4902   17.5044 N   0  0  0  0  0  0  0  0  0  0  0  0
    3.5093  -13.3527   18.5085 C   0  0  0  0  0  0  0  0  0  0  0  0
    2.6969  -14.4524   18.8155 N   0  0  0  0  0  0  0  0  0  0  0  0
    0.4290  -15.5671   20.0217 H   0  0  0  0  0  0  0  0  0  0  0  0
   -3.0629  -20.8056   24.3538 H   0  0  0  0  0  0  0  0  0  0  0  0
   -4.7305  -19.0136   23.9373 H   0  0  0  0  0  0  0  0  0  0  0  0
   -4.2184  -17.1585   22.3561 H   0  0  0  0  0  0  0  0  0  0  0  0
   -1.9835  -16.1950   20.6499 H   0  0  0  0  0  0  0  0  0  0  0  0
    4.3599  -15.3653   21.6771 H   0  0  0  0  0  0  0  0  0  0  0  0
    5.7757  -13.3653   21.0287 H   0  0  0  0  0  0  0  0  0  0  0  0
    6.0779  -11.4297   19.1945 H   0  0  0  0  0  0  0  0  0  0  0  0
    4.6035  -10.7950   16.9292 H   0  0  0  0  0  0  0  0  0  0  0  0
  1  2  2  0
  2  3  1  0
  3  4  1  0
  4  5  2  0
  5  6  1  0
  6  7  2  0
  7  8  1  0
  7  9  1  0
  9 10  2  0
 10 11  1  0
 11 12  2  0
 12 13  1  0
  2 14  1  0
 14 15  1  0
 15 16  2  0
 16 17  1  0
 17 18  1  0
 18 19  2  0
 19 20  1  0
 20 21  2  0
 21 22  1  0
 13  4  1  0
 22 14  2  0
 12  6  1  0
 21 17  1  0
  3 23  1  0
  9 24  1  0
 10 25  1  0
 11 26  1  0
 13 27  1  0
 15 28  1  0
 16 29  1  0
 18 30  1  0
 19 31  1  0
M  END
>  <Energy>  (463) 
84.104247176169068

>  <compound_id>  (463) 
27118

>  <target_id>  (463) 
1

>  <reference_id>  (463) 
106

>  <inspiration_ids>  (463) 
[52, 106]

>  <energy_score>  (463) 
-22.985220912810064

>  <distance_score>  (463) 
15.691884714019091

>  <path>  (463) 
/opt/xchem-fragalysis-2/maxwin/BulkDock/SCRATCH/511023/C27118-P106/C27118-P106.minimised.mol

>  <scratch_subdir>  (463) 
/opt/xchem-fragalysis-2/maxwin/BulkDock/SCRATCH/511023/C27118-P106

>  <fragmenstein_runtime>  (463) 
12.104026317596436

>  <fragmenstein_outcome>  (463) 
too moved

>  <fragmenstein_mode>  (463) 
expansion

>  <fragmenstein_error>  (463) 


$$$$
C27107-P52
     RDKit          3D

 44 48  0  0  0  0  0  0  0  0999 V2000
    3.7420  -14.6593   27.1824 O   0  0  0  0  0  0  0  0  0  0  0  0
    2.9242  -13.8670   26.9063 C   0  0  0  0  0  0  0  0  0  0  0  0
    3.7417  -12.3658   25.9805 C   0  0  0  0  0  0  0  0  0  0  0  0
    4.2381  -12.6013   24.2682 C   0  0  0  0  0  0  0  0  0  0  0  0
    5.2135  -11.8698   23.6644 C   0  0  0  0  0  0  0  0  0  0  0  0
    5.8336  -10.8358   24.3433 N   0  0  0  0  0  0  0  0  0  0  0  0
    6.8230   -9.9830   23.9074 C   0  0  0  0  0  0  0  0  0  0  0  0
    6.9748   -9.0678   24.9166 C   0  0  0  0  0  0  0  0  0  0  0  0
    6.1116   -9.3387   25.9570 N   0  0  0  0  0  0  0  0  0  0  0  0
    5.4593  -10.4611   25.6511 C   0  0  0  0  0  0  0  0  0  0  0  0
    4.4629  -11.2331   26.4682 N   0  0  0  0  0  0  0  0  0  0  0  0
    1.2153  -14.2416   27.2042 N   0  0  0  0  0  0  0  0  0  0  0  0
    0.5927  -15.4573   27.6477 C   0  0  0  0  0  0  0  0  0  0  0  0
   -1.0604  -15.8630   26.8662 C   0  0  0  0  0  0  0  0  0  0  0  0
   -2.1878  -14.3838   27.0036 C   0  0  0  0  0  0  0  0  0  0  0  0
   -2.0563  -13.3327   28.6684 C   0  0  0  0  0  0  0  0  0  0  0  0
   -3.8951  -14.0876   29.3340 C   0  0  0  0  0  0  0  0  0  0  0  0
   -5.1858  -15.1050   29.0916 N   0  0  0  0  0  0  0  0  0  0  0  0
   -6.5046  -15.3003   30.2936 C   0  0  0  0  0  0  0  0  0  0  0  0
   -6.7852  -16.2319   31.6067 C   0  0  0  0  0  0  0  0  0  0  0  0
   -7.0626  -16.0625   32.9913 C   0  0  0  0  0  0  0  0  0  0  0  0
   -6.3566  -15.0648   33.4901 C   0  0  0  0  0  0  0  0  0  0  0  0
   -5.7139  -14.3931   32.4865 C   0  0  0  0  0  0  0  0  0  0  0  0
   -6.2423  -14.2076   30.9669 C   0  0  0  0  0  0  0  0  0  0  0  0
   -5.6786  -13.5761   29.5939 N   0  0  0  0  0  0  0  0  0  0  0  0
    0.0104  -13.8940   28.8532 C   0  0  0  0  0  0  0  0  0  0  0  0
    3.9598  -13.4555   23.7038 H   0  0  0  0  0  0  0  0  0  0  0  0
    5.5600  -12.0847   22.6613 H   0  0  0  0  0  0  0  0  0  0  0  0
    7.2986  -10.1000   22.9452 H   0  0  0  0  0  0  0  0  0  0  0  0
    7.6521   -8.2252   24.9602 H   0  0  0  0  0  0  0  0  0  0  0  0
    1.1738  -15.9637   26.8991 H   0  0  0  0  0  0  0  0  0  0  0  0
    0.7951  -15.8603   28.6463 H   0  0  0  0  0  0  0  0  0  0  0  0
   -1.6111  -16.7800   26.7055 H   0  0  0  0  0  0  0  0  0  0  0  0
   -0.7255  -16.2006   25.8864 H   0  0  0  0  0  0  0  0  0  0  0  0
   -2.2077  -13.6179   26.2359 H   0  0  0  0  0  0  0  0  0  0  0  0
   -3.0948  -14.9834   27.1059 H   0  0  0  0  0  0  0  0  0  0  0  0
   -2.4272  -12.4046   28.3640 H   0  0  0  0  0  0  0  0  0  0  0  0
   -6.1876  -17.1791   31.7307 H   0  0  0  0  0  0  0  0  0  0  0  0
   -7.3525  -16.8968   33.6242 H   0  0  0  0  0  0  0  0  0  0  0  0
   -6.0859  -14.9898   34.5340 H   0  0  0  0  0  0  0  0  0  0  0  0
   -4.7779  -13.9272   32.8105 H   0  0  0  0  0  0  0  0  0  0  0  0
   -5.8230  -12.5866   29.4454 H   0  0  0  0  0  0  0  0  0  0  0  0
    0.3174  -14.4364   29.7507 H   0  0  0  0  0  0  0  0  0  0  0  0
   -0.6202  -14.0700   28.0041 H   0  0  0  0  0  0  0  0  0  0  0  0
  1  2  2  0
  2  3  1  0
  3  4  1  0
  4  5  2  0
  5  6  1  0
  6  7  1  0
  7  8  2  0
  8  9  1  0
  9 10  2  0
 10 11  1  0
  2 12  1  0
 12 13  1  0
 13 14  1  0
 14 15  1  0
 15 16  1  0
 16 17  1  0
 17 18  2  0
 18 19  1  0
 19 20  2  0
 20 21  1  0
 21 22  2  0
 22 23  1  0
 23 24  2  0
 24 25  1  0
 16 26  1  0
 11  3  2  0
 26 12  1  0
 10  6  1  0
 25 17  1  0
 24 19  1  0
  4 27  1  0
  5 28  1  0
  7 29  1  0
  8 30  1  0
 13 31  1  0
 13 32  1  0
 14 33  1  0
 14 34  1  0
 15 35  1  0
 15 36  1  0
 16 37  1  0
 20 38  1  0
 21 39  1  0
 22 40  1  0
 23 41  1  0
 25 42  1  0
 26 43  1  0
 26 44  1  0
M  END
>  <Energy>  (464) 
1289.5049155745676

>  <compound_id>  (464) 
27107

>  <target_id>  (464) 
1

>  <reference_id>  (464) 
52

>  <inspiration_ids>  (464) 
[52, 106]

>  <energy_score>  (464) 
1176.3212771198469

>  <distance_score>  (464) 
13.641428676096709

>  <path>  (464) 
/opt/xchem-fragalysis-2/maxwin/BulkDock/SCRATCH/511023/C27107-P52/C27107-P52.minimised.mol

>  <scratch_subdir>  (464) 
/opt/xchem-fragalysis-2/maxwin/BulkDock/SCRATCH/511023/C27107-P52

>  <fragmenstein_runtime>  (464) 
17.377367734909058

>  <fragmenstein_outcome>  (464) 
too moved

>  <fragmenstein_mode>  (464) 
expansion

>  <fragmenstein_error>  (464) 


$$$$
C27107-P106
     RDKit          3D

 44 48  0  0  0  0  0  0  0  0999 V2000
    0.3804  -12.2407   22.9621 O   0  0  0  0  0  0  0  0  0  0  0  0
   -0.4179  -12.9890   22.4872 C   0  0  0  0  0  0  0  0  0  0  0  0
   -1.2466  -12.1528   20.7842 C   0  0  0  0  0  0  0  0  0  0  0  0
   -0.7950  -10.5024   21.0021 C   0  0  0  0  0  0  0  0  0  0  0  0
   -0.5593   -9.7611   19.9269 C   0  0  0  0  0  0  0  0  0  0  0  0
   -0.8967  -10.3154   18.7310 N   0  0  0  0  0  0  0  0  0  0  0  0
   -0.5669   -9.8598   17.4820 C   0  0  0  0  0  0  0  0  0  0  0  0
   -1.0857  -10.7935   16.6294 C   0  0  0  0  0  0  0  0  0  0  0  0
   -1.7428  -11.7845   17.3277 N   0  0  0  0  0  0  0  0  0  0  0  0
   -1.6387  -11.5133   18.6230 C   0  0  0  0  0  0  0  0  0  0  0  0
   -2.0036  -12.3537   19.7267 N   0  0  0  0  0  0  0  0  0  0  0  0
   -1.2789  -14.7852   23.1410 N   0  0  0  0  0  0  0  0  0  0  0  0
   -1.0691  -15.2995   24.3822 C   0  0  0  0  0  0  0  0  0  0  0  0
   -2.1278  -15.1201   25.9874 C   0  0  0  0  0  0  0  0  0  0  0  0
   -2.7543  -16.9809   26.1531 C   0  0  0  0  0  0  0  0  0  0  0  0
   -4.0318  -17.0822   25.3124 C   0  0  0  0  0  0  0  0  0  0  0  0
   -5.3792  -18.3429   26.5974 C   0  0  0  0  0  0  0  0  0  0  0  0
   -6.9967  -19.0294   26.8558 N   0  0  0  0  0  0  0  0  0  0  0  0
   -8.2709  -19.3149   28.3154 C   0  0  0  0  0  0  0  0  0  0  0  0
   -9.8420  -20.3214   29.2124 C   0  0  0  0  0  0  0  0  0  0  0  0
  -10.1149  -20.3517   31.1287 C   0  0  0  0  0  0  0  0  0  0  0  0
   -9.0469  -19.2317   32.2785 C   0  0  0  0  0  0  0  0  0  0  0  0
   -7.5707  -18.0877   31.2565 C   0  0  0  0  0  0  0  0  0  0  0  0
   -7.2532  -18.3244   29.3733 C   0  0  0  0  0  0  0  0  0  0  0  0
   -5.9368  -18.0252   28.3054 N   0  0  0  0  0  0  0  0  0  0  0  0
   -3.0618  -15.3128   24.2582 C   0  0  0  0  0  0  0  0  0  0  0  0
   -0.4834  -10.1786   21.9824 H   0  0  0  0  0  0  0  0  0  0  0  0
   -0.1024   -8.7817   19.9556 H   0  0  0  0  0  0  0  0  0  0  0  0
    0.0002   -8.9552   17.3212 H   0  0  0  0  0  0  0  0  0  0  0  0
   -1.0372  -10.8153   15.5485 H   0  0  0  0  0  0  0  0  0  0  0  0
   -1.1499  -14.2530   24.7513 H   0  0  0  0  0  0  0  0  0  0  0  0
   -0.1041  -14.6728   24.4525 H   0  0  0  0  0  0  0  0  0  0  0  0
   -2.6021  -14.1529   25.9944 H   0  0  0  0  0  0  0  0  0  0  0  0
   -1.7227  -15.0632   27.0386 H   0  0  0  0  0  0  0  0  0  0  0  0
   -2.0335  -17.7441   25.8396 H   0  0  0  0  0  0  0  0  0  0  0  0
   -2.9206  -17.1438   27.2157 H   0  0  0  0  0  0  0  0  0  0  0  0
   -3.9960  -17.8776   24.5657 H   0  0  0  0  0  0  0  0  0  0  0  0
  -10.3291  -21.1245   28.6153 H   0  0  0  0  0  0  0  0  0  0  0  0
  -10.8381  -21.0405   31.5654 H   0  0  0  0  0  0  0  0  0  0  0  0
   -9.0954  -19.2078   33.3557 H   0  0  0  0  0  0  0  0  0  0  0  0
   -6.8096  -17.5325   31.8236 H   0  0  0  0  0  0  0  0  0  0  0  0
   -5.4263  -17.3268   28.7884 H   0  0  0  0  0  0  0  0  0  0  0  0
   -3.9060  -14.8519   23.7241 H   0  0  0  0  0  0  0  0  0  0  0  0
   -3.3912  -15.9648   23.4545 H   0  0  0  0  0  0  0  0  0  0  0  0
  1  2  2  0
  2  3  1  0
  3  4  1  0
  4  5  2  0
  5  6  1  0
  6  7  1  0
  7  8  2  0
  8  9  1  0
  9 10  2  0
 10 11  1  0
  2 12  1  0
 12 13  1  0
 13 14  1  0
 14 15  1  0
 15 16  1  0
 16 17  1  0
 17 18  2  0
 18 19  1  0
 19 20  2  0
 20 21  1  0
 21 22  2  0
 22 23  1  0
 23 24  2  0
 24 25  1  0
 16 26  1  0
 11  3  2  0
 26 12  1  0
 10  6  1  0
 25 17  1  0
 24 19  1  0
  4 27  1  0
  5 28  1  0
  7 29  1  0
  8 30  1  0
 13 31  1  0
 13 32  1  0
 14 33  1  0
 14 34  1  0
 15 35  1  0
 15 36  1  0
 16 37  1  0
 20 38  1  0
 21 39  1  0
 22 40  1  0
 23 41  1  0
 25 42  1  0
 26 43  1  0
 26 44  1  0
M  END
>  <Energy>  (465) 
2316.5216777818155

>  <compound_id>  (465) 
27107

>  <target_id>  (465) 
1

>  <reference_id>  (465) 
106

>  <inspiration_ids>  (465) 
[52, 106]

>  <energy_score>  (465) 
2203.3380393271145

>  <distance_score>  (465) 
14.04544279277423

>  <path>  (465) 
/opt/xchem-fragalysis-2/maxwin/BulkDock/SCRATCH/511023/C27107-P106/C27107-P106.minimised.mol

>  <scratch_subdir>  (465) 
/opt/xchem-fragalysis-2/maxwin/BulkDock/SCRATCH/511023/C27107-P106

>  <fragmenstein_runtime>  (465) 
30.461814403533936

>  <fragmenstein_outcome>  (465) 
too moved

>  <fragmenstein_mode>  (465) 
expansion

>  <fragmenstein_error>  (465) 


$$$$
C27116-P52
     RDKit          3D

 37 40  0  0  0  0  0  0  0  0999 V2000
   -4.1188   -5.6865   32.5547 C   0  0  0  0  0  0  0  0  0  0  0  0
   -3.2710   -5.0282   31.6211 O   0  0  0  0  0  0  0  0  0  0  0  0
   -2.6212   -5.8112   30.7101 C   0  0  0  0  0  0  0  0  0  0  0  0
   -2.8082   -7.1599   30.5080 C   0  0  0  0  0  0  0  0  0  0  0  0
   -2.0805   -7.8422   29.5058 C   0  0  0  0  0  0  0  0  0  0  0  0
   -1.1476   -7.1753   28.6862 C   0  0  0  0  0  0  0  0  0  0  0  0
   -0.2751   -7.6149   27.7111 N   0  0  0  0  0  0  0  0  0  0  0  0
    0.5580   -6.5983   27.5085 C   0  0  0  0  0  0  0  0  0  0  0  0
    2.0123   -6.6589   27.0412 C   0  0  0  0  0  0  0  0  0  0  0  0
    2.4072   -5.5791   26.1244 O   0  0  0  0  0  0  0  0  0  0  0  0
    3.7531   -5.5850   25.8832 C   0  0  0  0  0  0  0  0  0  0  0  0
    4.5634   -6.2914   26.4691 O   0  0  0  0  0  0  0  0  0  0  0  0
    4.3160   -4.6272   24.7859 C   0  0  0  0  0  0  0  0  0  0  0  0
    5.2613   -3.5569   25.2833 C   0  0  0  0  0  0  0  0  0  0  0  0
    5.8518   -2.7973   24.3454 C   0  0  0  0  0  0  0  0  0  0  0  0
    5.5701   -3.0327   23.0100 N   0  0  0  0  0  0  0  0  0  0  0  0
    5.9871   -2.3631   21.8914 C   0  0  0  0  0  0  0  0  0  0  0  0
    5.4351   -3.0489   20.8356 C   0  0  0  0  0  0  0  0  0  0  0  0
    4.6869   -4.1070   21.2845 N   0  0  0  0  0  0  0  0  0  0  0  0
    4.7224   -4.0601   22.6024 C   0  0  0  0  0  0  0  0  0  0  0  0
    4.0786   -4.8587   23.5202 N   0  0  0  0  0  0  0  0  0  0  0  0
    0.0309   -5.4625   28.0840 N   0  0  0  0  0  0  0  0  0  0  0  0
   -0.9894   -5.8266   28.9254 C   0  0  0  0  0  0  0  0  0  0  0  0
   -1.7097   -5.1239   29.9037 C   0  0  0  0  0  0  0  0  0  0  0  0
   -4.9806   -6.1367   32.0512 H   0  0  0  0  0  0  0  0  0  0  0  0
   -3.5655   -6.4321   33.1354 H   0  0  0  0  0  0  0  0  0  0  0  0
   -4.4967   -4.9332   33.2525 H   0  0  0  0  0  0  0  0  0  0  0  0
   -3.5734   -7.6824   31.0443 H   0  0  0  0  0  0  0  0  0  0  0  0
   -2.2999   -8.8741   29.2756 H   0  0  0  0  0  0  0  0  0  0  0  0
    2.6386   -6.6114   27.9413 H   0  0  0  0  0  0  0  0  0  0  0  0
    2.1739   -7.6193   26.5450 H   0  0  0  0  0  0  0  0  0  0  0  0
    5.4353   -3.4549   26.3465 H   0  0  0  0  0  0  0  0  0  0  0  0
    6.5412   -1.9962   24.5804 H   0  0  0  0  0  0  0  0  0  0  0  0
    6.6065   -1.4816   21.9458 H   0  0  0  0  0  0  0  0  0  0  0  0
    5.5323   -2.8447   19.7758 H   0  0  0  0  0  0  0  0  0  0  0  0
    0.4795   -4.5586   28.0812 H   0  0  0  0  0  0  0  0  0  0  0  0
   -1.5413   -4.0618   30.0623 H   0  0  0  0  0  0  0  0  0  0  0  0
  1  2  1  0
  2  3  1  0
  3  4  2  0
  4  5  1  0
  5  6  2  0
  6  7  1  0
  7  8  2  0
  8  9  1  0
  9 10  1  0
 10 11  1  0
 11 12  2  0
 11 13  1  0
 13 14  1  0
 14 15  2  0
 15 16  1  0
 16 17  1  0
 17 18  2  0
 18 19  1  0
 19 20  2  0
 20 21  1  0
  8 22  1  0
 22 23  1  0
 23 24  2  0
 24  3  1  0
 23  6  1  0
 21 13  2  0
 20 16  1  0
  1 25  1  0
  1 26  1  0
  1 27  1  0
  4 28  1  0
  5 29  1  0
  9 30  1  0
  9 31  1  0
 14 32  1  0
 15 33  1  0
 17 34  1  0
 18 35  1  0
 22 36  1  0
 24 37  1  0
M  END
>  <Energy>  (466) 
88.059893745114579

>  <compound_id>  (466) 
27116

>  <target_id>  (466) 
1

>  <reference_id>  (466) 
52

>  <inspiration_ids>  (466) 
[52, 106]

>  <energy_score>  (466) 
-21.730871760635182

>  <distance_score>  (466) 
15.623084512650014

>  <path>  (466) 
/opt/xchem-fragalysis-2/maxwin/BulkDock/SCRATCH/511023/C27116-P52/C27116-P52.minimised.mol

>  <scratch_subdir>  (466) 
/opt/xchem-fragalysis-2/maxwin/BulkDock/SCRATCH/511023/C27116-P52

>  <fragmenstein_runtime>  (466) 
23.088106155395508

>  <fragmenstein_outcome>  (466) 
too moved

>  <fragmenstein_mode>  (466) 
expansion

>  <fragmenstein_error>  (466) 


$$$$
C27116-P106
     RDKit          3D

 37 40  0  0  0  0  0  0  0  0999 V2000
    0.5994  -17.2766   33.4937 C   0  0  0  0  0  0  0  0  0  0  0  0
    1.2974  -17.3010   32.2521 O   0  0  0  0  0  0  0  0  0  0  0  0
    0.8067  -16.4896   31.2814 C   0  0  0  0  0  0  0  0  0  0  0  0
   -0.2379  -15.6185   31.3506 C   0  0  0  0  0  0  0  0  0  0  0  0
   -0.7143  -15.2241   30.0446 C   0  0  0  0  0  0  0  0  0  0  0  0
   -0.0915  -15.3113   28.6507 C   0  0  0  0  0  0  0  0  0  0  0  0
   -0.2041  -14.1219   27.2944 N   0  0  0  0  0  0  0  0  0  0  0  0
    1.1290  -13.2443   26.7266 C   0  0  0  0  0  0  0  0  0  0  0  0
    1.2377  -11.2483   27.2942 C   0  0  0  0  0  0  0  0  0  0  0  0
    0.5270   -9.4811   27.5030 O   0  0  0  0  0  0  0  0  0  0  0  0
   -0.0865   -8.1464   26.9198 C   0  0  0  0  0  0  0  0  0  0  0  0
   -0.9233   -8.2636   26.0302 O   0  0  0  0  0  0  0  0  0  0  0  0
    0.2649   -6.4839   27.1640 C   0  0  0  0  0  0  0  0  0  0  0  0
    0.8545   -5.7503   28.3330 C   0  0  0  0  0  0  0  0  0  0  0  0
    1.6598   -4.6994   28.0431 C   0  0  0  0  0  0  0  0  0  0  0  0
    1.7450   -4.2341   26.7314 N   0  0  0  0  0  0  0  0  0  0  0  0
    2.5860   -3.3226   26.1394 C   0  0  0  0  0  0  0  0  0  0  0  0
    2.1690   -3.2487   24.8307 C   0  0  0  0  0  0  0  0  0  0  0  0
    1.0799   -4.0603   24.6256 N   0  0  0  0  0  0  0  0  0  0  0  0
    0.8490   -4.6836   25.7726 C   0  0  0  0  0  0  0  0  0  0  0  0
    0.0214   -5.7589   26.0608 N   0  0  0  0  0  0  0  0  0  0  0  0
    2.3223  -14.5270   27.4762 N   0  0  0  0  0  0  0  0  0  0  0  0
    1.3856  -15.8716   28.4364 C   0  0  0  0  0  0  0  0  0  0  0  0
    1.3489  -16.6951   29.9425 C   0  0  0  0  0  0  0  0  0  0  0  0
   -0.4414  -17.5937   33.3676 H   0  0  0  0  0  0  0  0  0  0  0  0
    1.0873  -17.9893   34.1653 H   0  0  0  0  0  0  0  0  0  0  0  0
    0.6565  -16.2861   33.9574 H   0  0  0  0  0  0  0  0  0  0  0  0
   -0.8248  -15.4429   32.2411 H   0  0  0  0  0  0  0  0  0  0  0  0
   -1.7315  -14.9095   29.8513 H   0  0  0  0  0  0  0  0  0  0  0  0
    0.7265  -11.2797   28.2588 H   0  0  0  0  0  0  0  0  0  0  0  0
    2.1789  -10.9747   27.7661 H   0  0  0  0  0  0  0  0  0  0  0  0
    0.5859   -6.0368   29.3401 H   0  0  0  0  0  0  0  0  0  0  0  0
    2.1963   -4.1327   28.7939 H   0  0  0  0  0  0  0  0  0  0  0  0
    3.3797   -2.8288   26.6791 H   0  0  0  0  0  0  0  0  0  0  0  0
    2.5750   -2.6463   24.0286 H   0  0  0  0  0  0  0  0  0  0  0  0
    3.3232  -14.5150   27.2738 H   0  0  0  0  0  0  0  0  0  0  0  0
    1.0009  -17.7207   29.8074 H   0  0  0  0  0  0  0  0  0  0  0  0
  1  2  1  0
  2  3  1  0
  3  4  2  0
  4  5  1  0
  5  6  2  0
  6  7  1  0
  7  8  2  0
  8  9  1  0
  9 10  1  0
 10 11  1  0
 11 12  2  0
 11 13  1  0
 13 14  1  0
 14 15  2  0
 15 16  1  0
 16 17  1  0
 17 18  2  0
 18 19  1  0
 19 20  2  0
 20 21  1  0
  8 22  1  0
 22 23  1  0
 23 24  2  0
 24  3  1  0
 23  6  1  0
 21 13  2  0
 20 16  1  0
  1 25  1  0
  1 26  1  0
  1 27  1  0
  4 28  1  0
  5 29  1  0
  9 30  1  0
  9 31  1  0
 14 32  1  0
 15 33  1  0
 17 34  1  0
 18 35  1  0
 22 36  1  0
 24 37  1  0
M  END
>  <Energy>  (467) 
807.96295351305616

>  <compound_id>  (467) 
27116

>  <target_id>  (467) 
1

>  <reference_id>  (467) 
106

>  <inspiration_ids>  (467) 
[52, 106]

>  <energy_score>  (467) 
698.1721880073122

>  <distance_score>  (467) 
15.700410846175515

>  <path>  (467) 
/opt/xchem-fragalysis-2/maxwin/BulkDock/SCRATCH/511023/C27116-P106/C27116-P106.minimised.mol

>  <scratch_subdir>  (467) 
/opt/xchem-fragalysis-2/maxwin/BulkDock/SCRATCH/511023/C27116-P106

>  <fragmenstein_runtime>  (467) 
25.145862817764282

>  <fragmenstein_outcome>  (467) 
too moved

>  <fragmenstein_mode>  (467) 
expansion

>  <fragmenstein_error>  (467) 


$$$$
C27119-P52
     RDKit          3D

 35 38  0  0  0  0  0  0  0  0999 V2000
    0.6955  -20.6869   27.9833 N   0  0  0  0  0  0  0  0  0  0  0  0
    0.4886  -19.6454   27.0099 C   0  0  0  0  0  0  0  0  0  0  0  0
   -0.3143  -19.5504   26.1270 O   0  0  0  0  0  0  0  0  0  0  0  0
    1.4296  -18.5033   27.1518 C   0  0  0  0  0  0  0  0  0  0  0  0
    1.4956  -17.7739   28.3443 C   0  0  0  0  0  0  0  0  0  0  0  0
    2.3608  -16.6718   28.4489 C   0  0  0  0  0  0  0  0  0  0  0  0
    3.1344  -16.3338   27.3177 C   0  0  0  0  0  0  0  0  0  0  0  0
    4.0588  -15.3262   27.0389 N   0  0  0  0  0  0  0  0  0  0  0  0
    4.4526  -15.3906   25.7071 C   0  0  0  0  0  0  0  0  0  0  0  0
    5.2128  -14.4193   25.0302 N   0  0  0  0  0  0  0  0  0  0  0  0
    5.7557  -13.1449   25.4835 C   0  0  0  0  0  0  0  0  0  0  0  0
    5.7583  -12.6382   26.5730 O   0  0  0  0  0  0  0  0  0  0  0  0
    6.5230  -12.2478   24.3848 C   0  0  0  0  0  0  0  0  0  0  0  0
    7.8335  -11.6403   24.8753 C   0  0  0  0  0  0  0  0  0  0  0  0
    8.4580  -10.7645   24.0691 C   0  0  0  0  0  0  0  0  0  0  0  0
    7.8991  -10.4615   22.8407 N   0  0  0  0  0  0  0  0  0  0  0  0
    8.3388   -9.6022   21.8617 C   0  0  0  0  0  0  0  0  0  0  0  0
    7.3978   -9.6863   20.8663 C   0  0  0  0  0  0  0  0  0  0  0  0
    6.3998  -10.5649   21.2179 N   0  0  0  0  0  0  0  0  0  0  0  0
    6.7066  -11.0505   22.4113 C   0  0  0  0  0  0  0  0  0  0  0  0
    6.0207  -11.9695   23.2032 N   0  0  0  0  0  0  0  0  0  0  0  0
    3.8936  -16.4683   25.1717 N   0  0  0  0  0  0  0  0  0  0  0  0
    3.0689  -17.0474   26.1302 C   0  0  0  0  0  0  0  0  0  0  0  0
    2.2038  -18.1545   26.0381 C   0  0  0  0  0  0  0  0  0  0  0  0
    1.5599  -20.4826   28.5184 H   0  0  0  0  0  0  0  0  0  0  0  0
    1.4090  -20.3741   28.6663 H   0  0  0  0  0  0  0  0  0  0  0  0
    0.8544  -18.0270   29.1861 H   0  0  0  0  0  0  0  0  0  0  0  0
    2.4196  -16.0957   29.3670 H   0  0  0  0  0  0  0  0  0  0  0  0
    4.3287  -14.5709   27.6591 H   0  0  0  0  0  0  0  0  0  0  0  0
    5.3187  -14.4856   24.0215 H   0  0  0  0  0  0  0  0  0  0  0  0
    8.1943  -11.9150   25.8584 H   0  0  0  0  0  0  0  0  0  0  0  0
    9.3840  -10.2718   24.3363 H   0  0  0  0  0  0  0  0  0  0  0  0
    9.2541   -9.0378   21.9576 H   0  0  0  0  0  0  0  0  0  0  0  0
    7.3755   -9.1728   19.9137 H   0  0  0  0  0  0  0  0  0  0  0  0
    2.1256  -18.7015   25.1032 H   0  0  0  0  0  0  0  0  0  0  0  0
  1  2  1  0
  2  3  2  0
  2  4  1  0
  4  5  2  0
  5  6  1  0
  6  7  2  0
  7  8  1  0
  8  9  1  0
  9 10  1  0
 10 11  1  0
 11 12  2  0
 11 13  1  0
 13 14  1  0
 14 15  2  0
 15 16  1  0
 16 17  1  0
 17 18  2  0
 18 19  1  0
 19 20  2  0
 20 21  1  0
  9 22  2  0
 22 23  1  0
 23 24  2  0
 24  4  1  0
 23  7  1  0
 21 13  2  0
 20 16  1  0
  1 25  1  0
  1 26  1  0
  5 27  1  0
  6 28  1  0
  8 29  1  0
 10 30  1  0
 14 31  1  0
 15 32  1  0
 17 33  1  0
 18 34  1  0
 24 35  1  0
M  END
>  <Energy>  (468) 
208.27454428693531

>  <compound_id>  (468) 
27119

>  <target_id>  (468) 
1

>  <reference_id>  (468) 
52

>  <inspiration_ids>  (468) 
[52, 106]

>  <energy_score>  (468) 
118.86842093176006

>  <distance_score>  (468) 
15.301956650986055

>  <path>  (468) 
/opt/xchem-fragalysis-2/maxwin/BulkDock/SCRATCH/511023/C27119-P52/C27119-P52.minimised.mol

>  <scratch_subdir>  (468) 
/opt/xchem-fragalysis-2/maxwin/BulkDock/SCRATCH/511023/C27119-P52

>  <fragmenstein_runtime>  (468) 
17.37040638923645

>  <fragmenstein_outcome>  (468) 
too moved

>  <fragmenstein_mode>  (468) 
expansion

>  <fragmenstein_error>  (468) 


$$$$
C27119-P106
     RDKit          3D

 35 38  0  0  0  0  0  0  0  0999 V2000
    2.5409  -18.7919   32.2208 N   0  0  0  0  0  0  0  0  0  0  0  0
    1.6736  -18.6581   31.0758 C   0  0  0  0  0  0  0  0  0  0  0  0
    0.4964  -18.8412   30.9635 O   0  0  0  0  0  0  0  0  0  0  0  0
    2.3802  -18.2244   29.8373 C   0  0  0  0  0  0  0  0  0  0  0  0
    2.2028  -18.9777   28.6727 C   0  0  0  0  0  0  0  0  0  0  0  0
    2.8953  -18.6385   27.5013 C   0  0  0  0  0  0  0  0  0  0  0  0
    3.7207  -17.4963   27.5422 C   0  0  0  0  0  0  0  0  0  0  0  0
    4.5505  -16.8817   26.6115 N   0  0  0  0  0  0  0  0  0  0  0  0
    5.0366  -15.6680   27.1063 C   0  0  0  0  0  0  0  0  0  0  0  0
    5.7744  -14.7514   26.3203 N   0  0  0  0  0  0  0  0  0  0  0  0
    6.4489  -13.5025   26.6836 C   0  0  0  0  0  0  0  0  0  0  0  0
    6.6124  -12.9831   27.7563 O   0  0  0  0  0  0  0  0  0  0  0  0
    7.1460  -12.6521   25.4922 C   0  0  0  0  0  0  0  0  0  0  0  0
    8.4056  -11.8930   25.9151 C   0  0  0  0  0  0  0  0  0  0  0  0
    8.9514  -11.0330   25.0379 C   0  0  0  0  0  0  0  0  0  0  0  0
    8.3679  -10.8788   23.7946 N   0  0  0  0  0  0  0  0  0  0  0  0
    8.7172  -10.0528   22.7536 C   0  0  0  0  0  0  0  0  0  0  0  0
    7.7783  -10.2895   21.7812 C   0  0  0  0  0  0  0  0  0  0  0  0
    6.8726  -11.2364   22.2038 N   0  0  0  0  0  0  0  0  0  0  0  0
    7.2364  -11.6098   23.4213 C   0  0  0  0  0  0  0  0  0  0  0  0
    6.6323  -12.5225   24.2880 N   0  0  0  0  0  0  0  0  0  0  0  0
    4.6414  -15.5769   28.3723 N   0  0  0  0  0  0  0  0  0  0  0  0
    3.8406  -16.6862   28.6590 C   0  0  0  0  0  0  0  0  0  0  0  0
    3.1847  -17.0719   29.8459 C   0  0  0  0  0  0  0  0  0  0  0  0
    3.4821  -18.4366   31.9750 H   0  0  0  0  0  0  0  0  0  0  0  0
    3.5236  -18.6631   31.9174 H   0  0  0  0  0  0  0  0  0  0  0  0
    1.5425  -19.8436   28.6808 H   0  0  0  0  0  0  0  0  0  0  0  0
    2.7900  -19.2319   26.5984 H   0  0  0  0  0  0  0  0  0  0  0  0
    4.6994  -17.2109   25.6713 H   0  0  0  0  0  0  0  0  0  0  0  0
    5.9006  -14.9197   25.3287 H   0  0  0  0  0  0  0  0  0  0  0  0
    8.7936  -12.0553   26.9136 H   0  0  0  0  0  0  0  0  0  0  0  0
    9.8300  -10.4405   25.2595 H   0  0  0  0  0  0  0  0  0  0  0  0
    9.5698   -9.3913   22.7992 H   0  0  0  0  0  0  0  0  0  0  0  0
    7.6970   -9.8367   20.8014 H   0  0  0  0  0  0  0  0  0  0  0  0
    3.2827  -16.4489   30.7285 H   0  0  0  0  0  0  0  0  0  0  0  0
  1  2  1  0
  2  3  2  0
  2  4  1  0
  4  5  2  0
  5  6  1  0
  6  7  2  0
  7  8  1  0
  8  9  1  0
  9 10  1  0
 10 11  1  0
 11 12  2  0
 11 13  1  0
 13 14  1  0
 14 15  2  0
 15 16  1  0
 16 17  1  0
 17 18  2  0
 18 19  1  0
 19 20  2  0
 20 21  1  0
  9 22  2  0
 22 23  1  0
 23 24  2  0
 24  4  1  0
 23  7  1  0
 21 13  2  0
 20 16  1  0
  1 25  1  0
  1 26  1  0
  5 27  1  0
  6 28  1  0
  8 29  1  0
 10 30  1  0
 14 31  1  0
 15 32  1  0
 17 33  1  0
 18 34  1  0
 24 35  1  0
M  END
>  <Energy>  (469) 
219.13241713767593

>  <compound_id>  (469) 
27119

>  <target_id>  (469) 
1

>  <reference_id>  (469) 
106

>  <inspiration_ids>  (469) 
[52, 106]

>  <energy_score>  (469) 
129.72629378250025

>  <distance_score>  (469) 
15.539665720749614

>  <path>  (469) 
/opt/xchem-fragalysis-2/maxwin/BulkDock/SCRATCH/511023/C27119-P106/C27119-P106.minimised.mol

>  <scratch_subdir>  (469) 
/opt/xchem-fragalysis-2/maxwin/BulkDock/SCRATCH/511023/C27119-P106

>  <fragmenstein_runtime>  (469) 
23.93884015083313

>  <fragmenstein_outcome>  (469) 
too moved

>  <fragmenstein_mode>  (469) 
expansion

>  <fragmenstein_error>  (469) 


$$$$
C27120-P52
     RDKit          3D

 31 34  0  0  0  0  0  0  0  0999 V2000
    3.4200   -8.1975   19.9147 O   0  0  0  0  0  0  0  0  0  0  0  0
    4.3712   -8.0778   20.6336 C   0  0  0  0  0  0  0  0  0  0  0  0
    4.3924   -9.3333   22.1635 N   0  0  0  0  0  0  0  0  0  0  0  0
    3.2326  -10.8293   22.6786 C   0  0  0  0  0  0  0  0  0  0  0  0
    3.4968  -12.0507   23.8932 N   0  0  0  0  0  0  0  0  0  0  0  0
    2.4603  -12.2390   25.5156 C   0  0  0  0  0  0  0  0  0  0  0  0
    2.1493  -13.4052   26.9140 C   0  0  0  0  0  0  0  0  0  0  0  0
    0.9127  -14.3375   27.8324 C   0  0  0  0  0  0  0  0  0  0  0  0
   -0.7681  -13.9079   27.6507 C   0  0  0  0  0  0  0  0  0  0  0  0
   -0.0965  -12.7034   26.3830 C   0  0  0  0  0  0  0  0  0  0  0  0
    1.0913  -11.8635   25.1439 C   0  0  0  0  0  0  0  0  0  0  0  0
    1.5863  -11.2350   23.4479 N   0  0  0  0  0  0  0  0  0  0  0  0
    5.6667   -6.5444   19.8506 C   0  0  0  0  0  0  0  0  0  0  0  0
    7.1500   -7.1609   18.7639 C   0  0  0  0  0  0  0  0  0  0  0  0
    8.5003   -6.3631   18.2966 C   0  0  0  0  0  0  0  0  0  0  0  0
    8.7187   -4.4013   18.2142 N   0  0  0  0  0  0  0  0  0  0  0  0
   10.0237   -3.8868   18.1021 C   0  0  0  0  0  0  0  0  0  0  0  0
    8.9283   -4.0689   17.1857 C   0  0  0  0  0  0  0  0  0  0  0  0
    7.4658   -3.1336   17.6354 N   0  0  0  0  0  0  0  0  0  0  0  0
    6.9807   -3.4848   18.8295 C   0  0  0  0  0  0  0  0  0  0  0  0
    5.7643   -4.8093   19.5637 N   0  0  0  0  0  0  0  0  0  0  0  0
    5.2677   -9.2154   22.6586 H   0  0  0  0  0  0  0  0  0  0  0  0
    3.1420  -13.9993   26.8705 H   0  0  0  0  0  0  0  0  0  0  0  0
    1.2423  -15.0994   28.5413 H   0  0  0  0  0  0  0  0  0  0  0  0
   -1.3843  -13.3794   28.4147 H   0  0  0  0  0  0  0  0  0  0  0  0
   -1.4654  -13.0557   26.2463 H   0  0  0  0  0  0  0  0  0  0  0  0
    0.8883  -10.6485   23.0652 H   0  0  0  0  0  0  0  0  0  0  0  0
    7.1717   -8.2486   18.8328 H   0  0  0  0  0  0  0  0  0  0  0  0
    9.3916   -6.9874   18.2421 H   0  0  0  0  0  0  0  0  0  0  0  0
   10.5671   -2.9915   18.3951 H   0  0  0  0  0  0  0  0  0  0  0  0
    9.2635   -3.9225   16.1313 H   0  0  0  0  0  0  0  0  0  0  0  0
  1  2  2  0
  2  3  1  0
  3  4  1  0
  4  5  2  0
  5  6  1  0
  6  7  2  0
  7  8  1  0
  8  9  2  0
  9 10  1  0
 10 11  2  0
 11 12  1  0
  2 13  1  0
 13 14  1  0
 14 15  2  0
 15 16  1  0
 16 17  1  0
 17 18  2  0
 18 19  1  0
 19 20  2  0
 20 21  1  0
 12  4  1  0
 21 13  2  0
 11  6  1  0
 20 16  1  0
  3 22  1  0
  7 23  1  0
  8 24  1  0
  9 25  1  0
 10 26  1  0
 12 27  1  0
 14 28  1  0
 15 29  1  0
 17 30  1  0
 18 31  1  0
M  END
>  <Energy>  (470) 
2071.5707922392935

>  <compound_id>  (470) 
27120

>  <target_id>  (470) 
1

>  <reference_id>  (470) 
52

>  <inspiration_ids>  (470) 
[52, 106]

>  <energy_score>  (470) 
1989.1321022190828

>  <distance_score>  (470) 
13.910753853016855

>  <path>  (470) 
/opt/xchem-fragalysis-2/maxwin/BulkDock/SCRATCH/511023/C27120-P52/C27120-P52.minimised.mol

>  <scratch_subdir>  (470) 
/opt/xchem-fragalysis-2/maxwin/BulkDock/SCRATCH/511023/C27120-P52

>  <fragmenstein_runtime>  (470) 
8.811833143234253

>  <fragmenstein_outcome>  (470) 
too moved

>  <fragmenstein_mode>  (470) 
expansion

>  <fragmenstein_error>  (470) 


$$$$
C27120-P106
     RDKit          3D

 31 34  0  0  0  0  0  0  0  0999 V2000
   -4.7467   -8.9854   20.7403 O   0  0  0  0  0  0  0  0  0  0  0  0
   -4.2848   -9.9045   20.1174 C   0  0  0  0  0  0  0  0  0  0  0  0
   -4.7942  -11.2782   19.9085 N   0  0  0  0  0  0  0  0  0  0  0  0
   -5.9274  -11.9465   20.4580 C   0  0  0  0  0  0  0  0  0  0  0  0
   -6.2488  -13.2385   20.3237 N   0  0  0  0  0  0  0  0  0  0  0  0
   -7.0974  -13.5868   21.3938 C   0  0  0  0  0  0  0  0  0  0  0  0
   -7.5619  -14.8552   21.8288 C   0  0  0  0  0  0  0  0  0  0  0  0
   -8.2067  -14.9803   23.0724 C   0  0  0  0  0  0  0  0  0  0  0  0
   -8.4113  -13.8531   23.8640 C   0  0  0  0  0  0  0  0  0  0  0  0
   -7.9925  -12.5789   23.4309 C   0  0  0  0  0  0  0  0  0  0  0  0
   -7.3330  -12.4786   22.1877 C   0  0  0  0  0  0  0  0  0  0  0  0
   -6.7184  -11.4324   21.4906 N   0  0  0  0  0  0  0  0  0  0  0  0
   -2.7925   -9.5475   19.5194 C   0  0  0  0  0  0  0  0  0  0  0  0
   -1.6170  -10.1523   20.2626 C   0  0  0  0  0  0  0  0  0  0  0  0
   -0.3856   -9.6630   20.0203 C   0  0  0  0  0  0  0  0  0  0  0  0
   -0.2220   -8.6784   19.0618 N   0  0  0  0  0  0  0  0  0  0  0  0
    0.9184   -8.0379   18.6355 C   0  0  0  0  0  0  0  0  0  0  0  0
    0.4985   -7.1897   17.6418 C   0  0  0  0  0  0  0  0  0  0  0  0
   -0.8630   -7.2962   17.4564 N   0  0  0  0  0  0  0  0  0  0  0  0
   -1.3071   -8.1942   18.3269 C   0  0  0  0  0  0  0  0  0  0  0  0
   -2.6090   -8.6342   18.5809 N   0  0  0  0  0  0  0  0  0  0  0  0
   -4.1068  -11.8124   19.3963 H   0  0  0  0  0  0  0  0  0  0  0  0
   -7.3629  -15.7308   21.2195 H   0  0  0  0  0  0  0  0  0  0  0  0
   -8.5322  -15.9570   23.4176 H   0  0  0  0  0  0  0  0  0  0  0  0
   -8.8964  -13.9489   24.8334 H   0  0  0  0  0  0  0  0  0  0  0  0
   -8.1455  -11.7077   24.0607 H   0  0  0  0  0  0  0  0  0  0  0  0
   -6.5650  -10.5041   21.8512 H   0  0  0  0  0  0  0  0  0  0  0  0
   -1.8142  -10.9268   20.9819 H   0  0  0  0  0  0  0  0  0  0  0  0
    0.4999  -10.0081   20.5408 H   0  0  0  0  0  0  0  0  0  0  0  0
    1.8876   -8.2407   19.0658 H   0  0  0  0  0  0  0  0  0  0  0  0
    1.0907   -6.5068   17.0470 H   0  0  0  0  0  0  0  0  0  0  0  0
  1  2  2  0
  2  3  1  0
  3  4  1  0
  4  5  2  0
  5  6  1  0
  6  7  2  0
  7  8  1  0
  8  9  2  0
  9 10  1  0
 10 11  2  0
 11 12  1  0
  2 13  1  0
 13 14  1  0
 14 15  2  0
 15 16  1  0
 16 17  1  0
 17 18  2  0
 18 19  1  0
 19 20  2  0
 20 21  1  0
 12  4  1  0
 21 13  2  0
 11  6  1  0
 20 16  1  0
  3 22  1  0
  7 23  1  0
  8 24  1  0
  9 25  1  0
 10 26  1  0
 12 27  1  0
 14 28  1  0
 15 29  1  0
 17 30  1  0
 18 31  1  0
M  END
>  <Energy>  (471) 
65.374885643997587

>  <compound_id>  (471) 
27120

>  <target_id>  (471) 
1

>  <reference_id>  (471) 
106

>  <inspiration_ids>  (471) 
[52, 106]

>  <energy_score>  (471) 
-17.063804376229143

>  <distance_score>  (471) 
16.07667136923806

>  <path>  (471) 
/opt/xchem-fragalysis-2/maxwin/BulkDock/SCRATCH/511023/C27120-P106/C27120-P106.minimised.mol

>  <scratch_subdir>  (471) 
/opt/xchem-fragalysis-2/maxwin/BulkDock/SCRATCH/511023/C27120-P106

>  <fragmenstein_runtime>  (471) 
13.971603870391846

>  <fragmenstein_outcome>  (471) 
too moved

>  <fragmenstein_mode>  (471) 
expansion

>  <fragmenstein_error>  (471) 


$$$$
C27121-P52
     RDKit          3D

 34 37  0  0  0  0  0  0  0  0999 V2000
   -5.5390  -17.4103   27.9171 C   0  0  0  0  0  0  0  0  0  0  0  0
   -4.9488  -16.2260   28.6937 C   0  0  0  0  0  0  0  0  0  0  0  0
   -5.0658  -16.5364   30.1067 C   0  0  0  0  0  0  0  0  0  0  0  0
   -4.3592  -15.9549   31.1264 C   0  0  0  0  0  0  0  0  0  0  0  0
   -3.4998  -14.9419   30.7765 C   0  0  0  0  0  0  0  0  0  0  0  0
   -3.5646  -14.2356   29.3960 C   0  0  0  0  0  0  0  0  0  0  0  0
   -2.3386  -13.1613   28.6662 N   0  0  0  0  0  0  0  0  0  0  0  0
   -1.3730  -14.0304   27.5708 C   0  0  0  0  0  0  0  0  0  0  0  0
    0.4322  -14.5066   27.8790 N   0  0  0  0  0  0  0  0  0  0  0  0
    1.2164  -15.7920   27.4977 C   0  0  0  0  0  0  0  0  0  0  0  0
    0.8355  -16.8225   26.9992 O   0  0  0  0  0  0  0  0  0  0  0  0
    2.8291  -15.7025   27.6756 C   0  0  0  0  0  0  0  0  0  0  0  0
    3.7779  -16.1343   28.7385 C   0  0  0  0  0  0  0  0  0  0  0  0
    5.0742  -15.7256   28.5923 C   0  0  0  0  0  0  0  0  0  0  0  0
    5.4902  -14.9487   27.4955 N   0  0  0  0  0  0  0  0  0  0  0  0
    6.6914  -14.3598   27.1602 C   0  0  0  0  0  0  0  0  0  0  0  0
    6.4586  -13.6864   25.9796 C   0  0  0  0  0  0  0  0  0  0  0  0
    5.1580  -13.8574   25.5830 N   0  0  0  0  0  0  0  0  0  0  0  0
    4.5975  -14.6299   26.5007 C   0  0  0  0  0  0  0  0  0  0  0  0
    3.3053  -15.0515   26.6301 N   0  0  0  0  0  0  0  0  0  0  0  0
   -2.5966  -14.9361   27.0613 N   0  0  0  0  0  0  0  0  0  0  0  0
   -3.9498  -15.1317   28.2577 C   0  0  0  0  0  0  0  0  0  0  0  0
   -6.0369  -17.1868   26.9866 H   0  0  0  0  0  0  0  0  0  0  0  0
   -6.3796  -17.8190   28.4755 H   0  0  0  0  0  0  0  0  0  0  0  0
   -4.8015  -18.2085   27.7946 H   0  0  0  0  0  0  0  0  0  0  0  0
   -5.5069  -17.4835   30.3834 H   0  0  0  0  0  0  0  0  0  0  0  0
   -4.3817  -16.3553   32.1341 H   0  0  0  0  0  0  0  0  0  0  0  0
   -2.8531  -14.5056   31.5441 H   0  0  0  0  0  0  0  0  0  0  0  0
   -1.6356  -12.8680   29.3030 H   0  0  0  0  0  0  0  0  0  0  0  0
    1.0416  -13.8768   28.3500 H   0  0  0  0  0  0  0  0  0  0  0  0
    3.4183  -16.7356   29.5611 H   0  0  0  0  0  0  0  0  0  0  0  0
    5.8407  -15.9729   29.3164 H   0  0  0  0  0  0  0  0  0  0  0  0
    7.5713  -14.4637   27.7768 H   0  0  0  0  0  0  0  0  0  0  0  0
    7.1521  -13.0942   25.3967 H   0  0  0  0  0  0  0  0  0  0  0  0
  1  2  1  0
  2  3  2  0
  3  4  1  0
  4  5  2  0
  5  6  1  0
  6  7  1  0
  7  8  1  0
  8  9  1  0
  9 10  1  0
 10 11  2  0
 10 12  1  0
 12 13  1  0
 13 14  2  0
 14 15  1  0
 15 16  1  0
 16 17  2  0
 17 18  1  0
 18 19  2  0
 19 20  1  0
  8 21  2  0
 21 22  1  0
 22  2  1  0
 22  6  2  0
 20 12  2  0
 19 15  1  0
  1 23  1  0
  1 24  1  0
  1 25  1  0
  3 26  1  0
  4 27  1  0
  5 28  1  0
  7 29  1  0
  9 30  1  0
 13 31  1  0
 14 32  1  0
 16 33  1  0
 17 34  1  0
M  END
>  <Energy>  (472) 
394.27964379562303

>  <compound_id>  (472) 
27121

>  <target_id>  (472) 
1

>  <reference_id>  (472) 
52

>  <inspiration_ids>  (472) 
[52, 106]

>  <energy_score>  (472) 
302.0551421931282

>  <distance_score>  (472) 
16.77691099404874

>  <path>  (472) 
/opt/xchem-fragalysis-2/maxwin/BulkDock/SCRATCH/511023/C27121-P52/C27121-P52.minimised.mol

>  <scratch_subdir>  (472) 
/opt/xchem-fragalysis-2/maxwin/BulkDock/SCRATCH/511023/C27121-P52

>  <fragmenstein_runtime>  (472) 
16.513900995254517

>  <fragmenstein_outcome>  (472) 
too moved

>  <fragmenstein_mode>  (472) 
expansion

>  <fragmenstein_error>  (472) 


$$$$
C27121-P106
     RDKit          3D

 34 37  0  0  0  0  0  0  0  0999 V2000
    2.2641  -20.3455   26.2990 C   0  0  0  0  0  0  0  0  0  0  0  0
    2.1008  -19.3973   27.4525 C   0  0  0  0  0  0  0  0  0  0  0  0
    1.0870  -19.6486   28.4126 C   0  0  0  0  0  0  0  0  0  0  0  0
    0.8972  -18.7954   29.4947 C   0  0  0  0  0  0  0  0  0  0  0  0
    1.7060  -17.6610   29.6518 C   0  0  0  0  0  0  0  0  0  0  0  0
    2.6905  -17.3972   28.6739 C   0  0  0  0  0  0  0  0  0  0  0  0
    3.6133  -16.3721   28.4799 N   0  0  0  0  0  0  0  0  0  0  0  0
    4.3136  -16.5409   27.2788 C   0  0  0  0  0  0  0  0  0  0  0  0
    5.1121  -15.5171   26.6822 N   0  0  0  0  0  0  0  0  0  0  0  0
    5.8604  -15.4944   25.4074 C   0  0  0  0  0  0  0  0  0  0  0  0
    6.0479  -16.3598   24.5940 O   0  0  0  0  0  0  0  0  0  0  0  0
    6.6063  -14.1144   24.9856 C   0  0  0  0  0  0  0  0  0  0  0  0
    8.0870  -14.0376   25.3091 C   0  0  0  0  0  0  0  0  0  0  0  0
    8.7998  -13.0402   24.7480 C   0  0  0  0  0  0  0  0  0  0  0  0
    8.1661  -12.1164   23.9321 N   0  0  0  0  0  0  0  0  0  0  0  0
    8.6759  -11.0436   23.2384 C   0  0  0  0  0  0  0  0  0  0  0  0
    7.5943  -10.4713   22.6159 C   0  0  0  0  0  0  0  0  0  0  0  0
    6.4437  -11.1574   22.9263 N   0  0  0  0  0  0  0  0  0  0  0  0
    6.7938  -12.1761   23.7011 C   0  0  0  0  0  0  0  0  0  0  0  0
    6.0160  -13.1952   24.2451 N   0  0  0  0  0  0  0  0  0  0  0  0
    3.9474  -17.7222   26.7946 N   0  0  0  0  0  0  0  0  0  0  0  0
    2.9116  -18.2369   27.5959 C   0  0  0  0  0  0  0  0  0  0  0  0
    1.3579  -20.3485   25.6850 H   0  0  0  0  0  0  0  0  0  0  0  0
    2.4510  -21.3592   26.6675 H   0  0  0  0  0  0  0  0  0  0  0  0
    3.1056  -20.0574   25.6613 H   0  0  0  0  0  0  0  0  0  0  0  0
    0.4506  -20.5245   28.3049 H   0  0  0  0  0  0  0  0  0  0  0  0
    0.1207  -19.0101   30.2253 H   0  0  0  0  0  0  0  0  0  0  0  0
    1.5609  -17.0118   30.5081 H   0  0  0  0  0  0  0  0  0  0  0  0
    3.7152  -15.5731   29.0799 H   0  0  0  0  0  0  0  0  0  0  0  0
    5.0924  -14.5848   27.0713 H   0  0  0  0  0  0  0  0  0  0  0  0
    8.5222  -14.8184   25.9193 H   0  0  0  0  0  0  0  0  0  0  0  0
    9.8679  -12.9309   24.8876 H   0  0  0  0  0  0  0  0  0  0  0  0
    9.7276  -10.7984   23.2453 H   0  0  0  0  0  0  0  0  0  0  0  0
    7.5731   -9.6050   21.9675 H   0  0  0  0  0  0  0  0  0  0  0  0
  1  2  1  0
  2  3  2  0
  3  4  1  0
  4  5  2  0
  5  6  1  0
  6  7  1  0
  7  8  1  0
  8  9  1  0
  9 10  1  0
 10 11  2  0
 10 12  1  0
 12 13  1  0
 13 14  2  0
 14 15  1  0
 15 16  1  0
 16 17  2  0
 17 18  1  0
 18 19  2  0
 19 20  1  0
  8 21  2  0
 21 22  1  0
 22  2  1  0
 22  6  2  0
 20 12  2  0
 19 15  1  0
  1 23  1  0
  1 24  1  0
  1 25  1  0
  3 26  1  0
  4 27  1  0
  5 28  1  0
  7 29  1  0
  9 30  1  0
 13 31  1  0
 14 32  1  0
 16 33  1  0
 17 34  1  0
M  END
>  <Energy>  (473) 
73.399137742686818

>  <compound_id>  (473) 
27121

>  <target_id>  (473) 
1

>  <reference_id>  (473) 
106

>  <inspiration_ids>  (473) 
[52, 106]

>  <energy_score>  (473) 
-18.82536385981183

>  <distance_score>  (473) 
15.600519385991557

>  <path>  (473) 
/opt/xchem-fragalysis-2/maxwin/BulkDock/SCRATCH/511023/C27121-P106/C27121-P106.minimised.mol

>  <scratch_subdir>  (473) 
/opt/xchem-fragalysis-2/maxwin/BulkDock/SCRATCH/511023/C27121-P106

>  <fragmenstein_runtime>  (473) 
16.714265823364258

>  <fragmenstein_outcome>  (473) 
too moved

>  <fragmenstein_mode>  (473) 
expansion

>  <fragmenstein_error>  (473) 


$$$$
C27118-P52
     RDKit          3D

 31 34  0  0  0  0  0  0  0  0999 V2000
    5.8267  -13.7240   27.4077 O   0  0  0  0  0  0  0  0  0  0  0  0
    5.4644  -14.0157   26.3002 C   0  0  0  0  0  0  0  0  0  0  0  0
    4.5250  -15.0432   25.8421 N   0  0  0  0  0  0  0  0  0  0  0  0
    3.6935  -15.9348   26.5717 C   0  0  0  0  0  0  0  0  0  0  0  0
    3.3286  -15.8991   27.8470 N   0  0  0  0  0  0  0  0  0  0  0  0
    2.4031  -16.9248   28.0874 C   0  0  0  0  0  0  0  0  0  0  0  0
    1.7146  -17.3592   29.2452 C   0  0  0  0  0  0  0  0  0  0  0  0
    1.9996  -16.4580   30.6688 Cl  0  0  0  0  0  0  0  0  0  0  0  0
    0.8592  -18.4688   29.2237 C   0  0  0  0  0  0  0  0  0  0  0  0
    0.6396  -19.1358   28.0200 C   0  0  0  0  0  0  0  0  0  0  0  0
    1.2797  -18.7162   26.8382 C   0  0  0  0  0  0  0  0  0  0  0  0
    2.1707  -17.6223   26.9111 C   0  0  0  0  0  0  0  0  0  0  0  0
    2.9961  -16.9932   25.9841 N   0  0  0  0  0  0  0  0  0  0  0  0
    6.0796  -13.0224   25.1637 C   0  0  0  0  0  0  0  0  0  0  0  0
    7.1244  -12.0293   25.6920 C   0  0  0  0  0  0  0  0  0  0  0  0
    7.6435  -11.1335   24.8365 C   0  0  0  0  0  0  0  0  0  0  0  0
    7.2224  -11.1431   23.5222 N   0  0  0  0  0  0  0  0  0  0  0  0
    7.5989  -10.3358   22.4753 C   0  0  0  0  0  0  0  0  0  0  0  0
    6.8699  -10.7837   21.4030 C   0  0  0  0  0  0  0  0  0  0  0  0
    6.0679  -11.8411   21.7707 N   0  0  0  0  0  0  0  0  0  0  0  0
    6.2768  -12.0651   23.0598 C   0  0  0  0  0  0  0  0  0  0  0  0
    5.7047  -13.0248   23.9018 N   0  0  0  0  0  0  0  0  0  0  0  0
    4.5224  -15.0615   24.8286 H   0  0  0  0  0  0  0  0  0  0  0  0
    0.3566  -18.7910   30.1309 H   0  0  0  0  0  0  0  0  0  0  0  0
   -0.0363  -19.9882   27.9911 H   0  0  0  0  0  0  0  0  0  0  0  0
    1.1155  -19.2465   25.9046 H   0  0  0  0  0  0  0  0  0  0  0  0
    3.0827  -17.2573   25.0158 H   0  0  0  0  0  0  0  0  0  0  0  0
    7.4012  -12.0758   26.7384 H   0  0  0  0  0  0  0  0  0  0  0  0
    8.3791  -10.3955   25.1283 H   0  0  0  0  0  0  0  0  0  0  0  0
    8.3267   -9.5465   22.5868 H   0  0  0  0  0  0  0  0  0  0  0  0
    6.8725  -10.4153   20.3852 H   0  0  0  0  0  0  0  0  0  0  0  0
  1  2  2  0
  2  3  1  0
  3  4  1  0
  4  5  2  0
  5  6  1  0
  6  7  2  0
  7  8  1  0
  7  9  1  0
  9 10  2  0
 10 11  1  0
 11 12  2  0
 12 13  1  0
  2 14  1  0
 14 15  1  0
 15 16  2  0
 16 17  1  0
 17 18  1  0
 18 19  2  0
 19 20  1  0
 20 21  2  0
 21 22  1  0
 13  4  1  0
 22 14  2  0
 12  6  1  0
 21 17  1  0
  3 23  1  0
  9 24  1  0
 10 25  1  0
 11 26  1  0
 13 27  1  0
 15 28  1  0
 16 29  1  0
 18 30  1  0
 19 31  1  0
M  END
>  <Energy>  (474) 
77.972277751207614

>  <compound_id>  (474) 
27118

>  <target_id>  (474) 
1

>  <reference_id>  (474) 
52

>  <inspiration_ids>  (474) 
[52, 106]

>  <energy_score>  (474) 
-29.11719033776967

>  <distance_score>  (474) 
15.196558932597574

>  <path>  (474) 
/opt/xchem-fragalysis-2/maxwin/BulkDock/SCRATCH/511023/C27118-P52/C27118-P52.minimised.mol

>  <scratch_subdir>  (474) 
/opt/xchem-fragalysis-2/maxwin/BulkDock/SCRATCH/511023/C27118-P52

>  <fragmenstein_runtime>  (474) 
9.674504041671753

>  <fragmenstein_outcome>  (474) 
too moved

>  <fragmenstein_mode>  (474) 
expansion

>  <fragmenstein_error>  (474) 


$$$$
C27118-P106
     RDKit          3D

 31 34  0  0  0  0  0  0  0  0999 V2000
    2.9609  -17.3432   20.7879 O   0  0  0  0  0  0  0  0  0  0  0  0
    2.2045  -16.4995   20.3842 C   0  0  0  0  0  0  0  0  0  0  0  0
    0.7306  -16.4654   20.3558 N   0  0  0  0  0  0  0  0  0  0  0  0
   -0.2302  -17.3709   20.8793 C   0  0  0  0  0  0  0  0  0  0  0  0
   -0.0734  -18.5647   21.4372 N   0  0  0  0  0  0  0  0  0  0  0  0
   -1.2562  -18.8987   22.1251 C   0  0  0  0  0  0  0  0  0  0  0  0
   -1.5978  -19.9509   23.0114 C   0  0  0  0  0  0  0  0  0  0  0  0
   -0.3932  -21.1326   23.2772 Cl  0  0  0  0  0  0  0  0  0  0  0  0
   -2.8369  -19.9958   23.6664 C   0  0  0  0  0  0  0  0  0  0  0  0
   -3.7681  -18.9871   23.4302 C   0  0  0  0  0  0  0  0  0  0  0  0
   -3.4821  -17.9352   22.5355 C   0  0  0  0  0  0  0  0  0  0  0  0
   -2.2164  -17.9152   21.9026 C   0  0  0  0  0  0  0  0  0  0  0  0
   -1.5818  -17.0342   21.0288 N   0  0  0  0  0  0  0  0  0  0  0  0
    2.9938  -15.1444   19.9000 C   0  0  0  0  0  0  0  0  0  0  0  0
    4.1780  -14.7627   20.7957 C   0  0  0  0  0  0  0  0  0  0  0  0
    4.9259  -13.7006   20.4496 C   0  0  0  0  0  0  0  0  0  0  0  0
    4.5995  -12.9931   19.3093 N   0  0  0  0  0  0  0  0  0  0  0  0
    5.2040  -11.8881   18.7569 C   0  0  0  0  0  0  0  0  0  0  0  0
    4.4585  -11.5955   17.6430 C   0  0  0  0  0  0  0  0  0  0  0  0
    3.4195  -12.4902   17.5044 N   0  0  0  0  0  0  0  0  0  0  0  0
    3.5093  -13.3527   18.5085 C   0  0  0  0  0  0  0  0  0  0  0  0
    2.6969  -14.4524   18.8155 N   0  0  0  0  0  0  0  0  0  0  0  0
    0.4290  -15.5671   20.0217 H   0  0  0  0  0  0  0  0  0  0  0  0
   -3.0629  -20.8056   24.3538 H   0  0  0  0  0  0  0  0  0  0  0  0
   -4.7305  -19.0136   23.9373 H   0  0  0  0  0  0  0  0  0  0  0  0
   -4.2184  -17.1585   22.3561 H   0  0  0  0  0  0  0  0  0  0  0  0
   -1.9835  -16.1950   20.6499 H   0  0  0  0  0  0  0  0  0  0  0  0
    4.3599  -15.3653   21.6771 H   0  0  0  0  0  0  0  0  0  0  0  0
    5.7757  -13.3653   21.0287 H   0  0  0  0  0  0  0  0  0  0  0  0
    6.0779  -11.4297   19.1945 H   0  0  0  0  0  0  0  0  0  0  0  0
    4.6035  -10.7950   16.9292 H   0  0  0  0  0  0  0  0  0  0  0  0
  1  2  2  0
  2  3  1  0
  3  4  1  0
  4  5  2  0
  5  6  1  0
  6  7  2  0
  7  8  1  0
  7  9  1  0
  9 10  2  0
 10 11  1  0
 11 12  2  0
 12 13  1  0
  2 14  1  0
 14 15  1  0
 15 16  2  0
 16 17  1  0
 17 18  1  0
 18 19  2  0
 19 20  1  0
 20 21  2  0
 21 22  1  0
 13  4  1  0
 22 14  2  0
 12  6  1  0
 21 17  1  0
  3 23  1  0
  9 24  1  0
 10 25  1  0
 11 26  1  0
 13 27  1  0
 15 28  1  0
 16 29  1  0
 18 30  1  0
 19 31  1  0
M  END
>  <Energy>  (475) 
84.104247176169068

>  <compound_id>  (475) 
27118

>  <target_id>  (475) 
1

>  <reference_id>  (475) 
106

>  <inspiration_ids>  (475) 
[52, 106]

>  <energy_score>  (475) 
-22.985220912810064

>  <distance_score>  (475) 
15.691884714019091

>  <path>  (475) 
/opt/xchem-fragalysis-2/maxwin/BulkDock/SCRATCH/511023/C27118-P106/C27118-P106.minimised.mol

>  <scratch_subdir>  (475) 
/opt/xchem-fragalysis-2/maxwin/BulkDock/SCRATCH/511023/C27118-P106

>  <fragmenstein_runtime>  (475) 
12.756401300430298

>  <fragmenstein_outcome>  (475) 
too moved

>  <fragmenstein_mode>  (475) 
expansion

>  <fragmenstein_error>  (475) 


$$$$
C27119-P52
     RDKit          3D

 35 38  0  0  0  0  0  0  0  0999 V2000
    0.6955  -20.6869   27.9833 N   0  0  0  0  0  0  0  0  0  0  0  0
    0.4886  -19.6454   27.0099 C   0  0  0  0  0  0  0  0  0  0  0  0
   -0.3143  -19.5504   26.1270 O   0  0  0  0  0  0  0  0  0  0  0  0
    1.4296  -18.5033   27.1518 C   0  0  0  0  0  0  0  0  0  0  0  0
    1.4956  -17.7739   28.3443 C   0  0  0  0  0  0  0  0  0  0  0  0
    2.3608  -16.6718   28.4489 C   0  0  0  0  0  0  0  0  0  0  0  0
    3.1344  -16.3338   27.3177 C   0  0  0  0  0  0  0  0  0  0  0  0
    4.0588  -15.3262   27.0389 N   0  0  0  0  0  0  0  0  0  0  0  0
    4.4526  -15.3906   25.7071 C   0  0  0  0  0  0  0  0  0  0  0  0
    5.2128  -14.4193   25.0302 N   0  0  0  0  0  0  0  0  0  0  0  0
    5.7557  -13.1449   25.4835 C   0  0  0  0  0  0  0  0  0  0  0  0
    5.7583  -12.6382   26.5730 O   0  0  0  0  0  0  0  0  0  0  0  0
    6.5230  -12.2478   24.3848 C   0  0  0  0  0  0  0  0  0  0  0  0
    7.8335  -11.6403   24.8753 C   0  0  0  0  0  0  0  0  0  0  0  0
    8.4580  -10.7645   24.0691 C   0  0  0  0  0  0  0  0  0  0  0  0
    7.8991  -10.4615   22.8407 N   0  0  0  0  0  0  0  0  0  0  0  0
    8.3388   -9.6022   21.8617 C   0  0  0  0  0  0  0  0  0  0  0  0
    7.3978   -9.6863   20.8663 C   0  0  0  0  0  0  0  0  0  0  0  0
    6.3998  -10.5649   21.2179 N   0  0  0  0  0  0  0  0  0  0  0  0
    6.7066  -11.0505   22.4113 C   0  0  0  0  0  0  0  0  0  0  0  0
    6.0207  -11.9695   23.2032 N   0  0  0  0  0  0  0  0  0  0  0  0
    3.8936  -16.4683   25.1717 N   0  0  0  0  0  0  0  0  0  0  0  0
    3.0689  -17.0474   26.1302 C   0  0  0  0  0  0  0  0  0  0  0  0
    2.2038  -18.1545   26.0381 C   0  0  0  0  0  0  0  0  0  0  0  0
    1.5599  -20.4826   28.5184 H   0  0  0  0  0  0  0  0  0  0  0  0
    1.4090  -20.3741   28.6663 H   0  0  0  0  0  0  0  0  0  0  0  0
    0.8544  -18.0270   29.1861 H   0  0  0  0  0  0  0  0  0  0  0  0
    2.4196  -16.0957   29.3670 H   0  0  0  0  0  0  0  0  0  0  0  0
    4.3287  -14.5709   27.6591 H   0  0  0  0  0  0  0  0  0  0  0  0
    5.3187  -14.4856   24.0215 H   0  0  0  0  0  0  0  0  0  0  0  0
    8.1943  -11.9150   25.8584 H   0  0  0  0  0  0  0  0  0  0  0  0
    9.3840  -10.2718   24.3363 H   0  0  0  0  0  0  0  0  0  0  0  0
    9.2541   -9.0378   21.9576 H   0  0  0  0  0  0  0  0  0  0  0  0
    7.3755   -9.1728   19.9137 H   0  0  0  0  0  0  0  0  0  0  0  0
    2.1256  -18.7015   25.1032 H   0  0  0  0  0  0  0  0  0  0  0  0
  1  2  1  0
  2  3  2  0
  2  4  1  0
  4  5  2  0
  5  6  1  0
  6  7  2  0
  7  8  1  0
  8  9  1  0
  9 10  1  0
 10 11  1  0
 11 12  2  0
 11 13  1  0
 13 14  1  0
 14 15  2  0
 15 16  1  0
 16 17  1  0
 17 18  2  0
 18 19  1  0
 19 20  2  0
 20 21  1  0
  9 22  2  0
 22 23  1  0
 23 24  2  0
 24  4  1  0
 23  7  1  0
 21 13  2  0
 20 16  1  0
  1 25  1  0
  1 26  1  0
  5 27  1  0
  6 28  1  0
  8 29  1  0
 10 30  1  0
 14 31  1  0
 15 32  1  0
 17 33  1  0
 18 34  1  0
 24 35  1  0
M  END
>  <Energy>  (476) 
208.27454428693531

>  <compound_id>  (476) 
27119

>  <target_id>  (476) 
1

>  <reference_id>  (476) 
52

>  <inspiration_ids>  (476) 
[52, 106]

>  <energy_score>  (476) 
118.86842093176006

>  <distance_score>  (476) 
15.301956650986055

>  <path>  (476) 
/opt/xchem-fragalysis-2/maxwin/BulkDock/SCRATCH/511023/C27119-P52/C27119-P52.minimised.mol

>  <scratch_subdir>  (476) 
/opt/xchem-fragalysis-2/maxwin/BulkDock/SCRATCH/511023/C27119-P52

>  <fragmenstein_runtime>  (476) 
18.04460835456848

>  <fragmenstein_outcome>  (476) 
too moved

>  <fragmenstein_mode>  (476) 
expansion

>  <fragmenstein_error>  (476) 


$$$$
C27119-P106
     RDKit          3D

 35 38  0  0  0  0  0  0  0  0999 V2000
    2.5409  -18.7919   32.2208 N   0  0  0  0  0  0  0  0  0  0  0  0
    1.6736  -18.6581   31.0758 C   0  0  0  0  0  0  0  0  0  0  0  0
    0.4964  -18.8412   30.9635 O   0  0  0  0  0  0  0  0  0  0  0  0
    2.3802  -18.2244   29.8373 C   0  0  0  0  0  0  0  0  0  0  0  0
    2.2028  -18.9777   28.6727 C   0  0  0  0  0  0  0  0  0  0  0  0
    2.8953  -18.6385   27.5013 C   0  0  0  0  0  0  0  0  0  0  0  0
    3.7207  -17.4963   27.5422 C   0  0  0  0  0  0  0  0  0  0  0  0
    4.5505  -16.8817   26.6115 N   0  0  0  0  0  0  0  0  0  0  0  0
    5.0366  -15.6680   27.1063 C   0  0  0  0  0  0  0  0  0  0  0  0
    5.7744  -14.7514   26.3203 N   0  0  0  0  0  0  0  0  0  0  0  0
    6.4489  -13.5025   26.6836 C   0  0  0  0  0  0  0  0  0  0  0  0
    6.6124  -12.9831   27.7563 O   0  0  0  0  0  0  0  0  0  0  0  0
    7.1460  -12.6521   25.4922 C   0  0  0  0  0  0  0  0  0  0  0  0
    8.4056  -11.8930   25.9151 C   0  0  0  0  0  0  0  0  0  0  0  0
    8.9514  -11.0330   25.0379 C   0  0  0  0  0  0  0  0  0  0  0  0
    8.3679  -10.8788   23.7946 N   0  0  0  0  0  0  0  0  0  0  0  0
    8.7172  -10.0528   22.7536 C   0  0  0  0  0  0  0  0  0  0  0  0
    7.7783  -10.2895   21.7812 C   0  0  0  0  0  0  0  0  0  0  0  0
    6.8726  -11.2364   22.2038 N   0  0  0  0  0  0  0  0  0  0  0  0
    7.2364  -11.6098   23.4213 C   0  0  0  0  0  0  0  0  0  0  0  0
    6.6323  -12.5225   24.2880 N   0  0  0  0  0  0  0  0  0  0  0  0
    4.6414  -15.5769   28.3723 N   0  0  0  0  0  0  0  0  0  0  0  0
    3.8406  -16.6862   28.6590 C   0  0  0  0  0  0  0  0  0  0  0  0
    3.1847  -17.0719   29.8459 C   0  0  0  0  0  0  0  0  0  0  0  0
    3.4821  -18.4366   31.9750 H   0  0  0  0  0  0  0  0  0  0  0  0
    3.5236  -18.6631   31.9174 H   0  0  0  0  0  0  0  0  0  0  0  0
    1.5425  -19.8436   28.6808 H   0  0  0  0  0  0  0  0  0  0  0  0
    2.7900  -19.2319   26.5984 H   0  0  0  0  0  0  0  0  0  0  0  0
    4.6994  -17.2109   25.6713 H   0  0  0  0  0  0  0  0  0  0  0  0
    5.9006  -14.9197   25.3287 H   0  0  0  0  0  0  0  0  0  0  0  0
    8.7936  -12.0553   26.9136 H   0  0  0  0  0  0  0  0  0  0  0  0
    9.8300  -10.4405   25.2595 H   0  0  0  0  0  0  0  0  0  0  0  0
    9.5698   -9.3913   22.7992 H   0  0  0  0  0  0  0  0  0  0  0  0
    7.6970   -9.8367   20.8014 H   0  0  0  0  0  0  0  0  0  0  0  0
    3.2827  -16.4489   30.7285 H   0  0  0  0  0  0  0  0  0  0  0  0
  1  2  1  0
  2  3  2  0
  2  4  1  0
  4  5  2  0
  5  6  1  0
  6  7  2  0
  7  8  1  0
  8  9  1  0
  9 10  1  0
 10 11  1  0
 11 12  2  0
 11 13  1  0
 13 14  1  0
 14 15  2  0
 15 16  1  0
 16 17  1  0
 17 18  2  0
 18 19  1  0
 19 20  2  0
 20 21  1  0
  9 22  2  0
 22 23  1  0
 23 24  2  0
 24  4  1  0
 23  7  1  0
 21 13  2  0
 20 16  1  0
  1 25  1  0
  1 26  1  0
  5 27  1  0
  6 28  1  0
  8 29  1  0
 10 30  1  0
 14 31  1  0
 15 32  1  0
 17 33  1  0
 18 34  1  0
 24 35  1  0
M  END
>  <Energy>  (477) 
219.13241713767593

>  <compound_id>  (477) 
27119

>  <target_id>  (477) 
1

>  <reference_id>  (477) 
106

>  <inspiration_ids>  (477) 
[52, 106]

>  <energy_score>  (477) 
129.72629378250025

>  <distance_score>  (477) 
15.539665720749614

>  <path>  (477) 
/opt/xchem-fragalysis-2/maxwin/BulkDock/SCRATCH/511023/C27119-P106/C27119-P106.minimised.mol

>  <scratch_subdir>  (477) 
/opt/xchem-fragalysis-2/maxwin/BulkDock/SCRATCH/511023/C27119-P106

>  <fragmenstein_runtime>  (477) 
23.403143405914307

>  <fragmenstein_outcome>  (477) 
too moved

>  <fragmenstein_mode>  (477) 
expansion

>  <fragmenstein_error>  (477) 


$$$$
C27122-P52
     RDKit          3D

 31 34  0  0  0  0  0  0  0  0999 V2000
    5.1048  -15.8566   24.5502 O   0  0  0  0  0  0  0  0  0  0  0  0
    4.9003  -14.9826   25.3479 C   0  0  0  0  0  0  0  0  0  0  0  0
    4.0851  -14.9752   26.5685 N   0  0  0  0  0  0  0  0  0  0  0  0
    3.2305  -15.9548   27.1147 C   0  0  0  0  0  0  0  0  0  0  0  0
    2.5868  -15.8625   28.2756 N   0  0  0  0  0  0  0  0  0  0  0  0
    1.8829  -17.0491   28.4714 C   0  0  0  0  0  0  0  0  0  0  0  0
    1.1739  -17.5356   29.5944 C   0  0  0  0  0  0  0  0  0  0  0  0
    0.5691  -18.8023   29.5301 C   0  0  0  0  0  0  0  0  0  0  0  0
   -0.2923  -19.5076   31.0608 Br  0  0  0  0  0  0  0  0  0  0  0  0
    0.6025  -19.5490   28.3546 C   0  0  0  0  0  0  0  0  0  0  0  0
    1.3030  -19.0768   27.2291 C   0  0  0  0  0  0  0  0  0  0  0  0
    1.9688  -17.8399   27.3364 C   0  0  0  0  0  0  0  0  0  0  0  0
    2.8420  -17.1420   26.5049 N   0  0  0  0  0  0  0  0  0  0  0  0
    5.6110  -13.5723   24.9371 C   0  0  0  0  0  0  0  0  0  0  0  0
    6.7947  -13.1025   25.7517 C   0  0  0  0  0  0  0  0  0  0  0  0
    7.4963  -12.0548   25.2702 C   0  0  0  0  0  0  0  0  0  0  0  0
    7.1082  -11.4443   24.0845 N   0  0  0  0  0  0  0  0  0  0  0  0
    7.6759  -10.3988   23.3927 C   0  0  0  0  0  0  0  0  0  0  0  0
    6.8786  -10.2248   22.2881 C   0  0  0  0  0  0  0  0  0  0  0  0
    5.8419  -11.1269   22.2959 N   0  0  0  0  0  0  0  0  0  0  0  0
    5.9857  -11.8746   23.3812 C   0  0  0  0  0  0  0  0  0  0  0  0
    5.2391  -12.9551   23.8307 N   0  0  0  0  0  0  0  0  0  0  0  0
    4.2079  -14.0851   27.0463 H   0  0  0  0  0  0  0  0  0  0  0  0
    1.1324  -16.9359   30.4969 H   0  0  0  0  0  0  0  0  0  0  0  0
    0.1144  -20.5198   28.3036 H   0  0  0  0  0  0  0  0  0  0  0  0
    1.3727  -19.6785   26.3277 H   0  0  0  0  0  0  0  0  0  0  0  0
    3.1713  -17.4434   25.5985 H   0  0  0  0  0  0  0  0  0  0  0  0
    7.0577  -13.6393   26.6530 H   0  0  0  0  0  0  0  0  0  0  0  0
    8.3757  -11.6609   25.7639 H   0  0  0  0  0  0  0  0  0  0  0  0
    8.5689   -9.8983   23.7355 H   0  0  0  0  0  0  0  0  0  0  0  0
    6.9860   -9.5068   21.4861 H   0  0  0  0  0  0  0  0  0  0  0  0
  1  2  2  0
  2  3  1  0
  3  4  1  0
  4  5  2  0
  5  6  1  0
  6  7  2  0
  7  8  1  0
  8  9  1  0
  8 10  2  0
 10 11  1  0
 11 12  2  0
 12 13  1  0
  2 14  1  0
 14 15  1  0
 15 16  2  0
 16 17  1  0
 17 18  1  0
 18 19  2  0
 19 20  1  0
 20 21  2  0
 21 22  1  0
 13  4  1  0
 22 14  2  0
 12  6  1  0
 21 17  1  0
  3 23  1  0
  7 24  1  0
 10 25  1  0
 11 26  1  0
 13 27  1  0
 15 28  1  0
 16 29  1  0
 18 30  1  0
 19 31  1  0
M  END
>  <Energy>  (478) 
50.05847757834384

>  <compound_id>  (478) 
27122

>  <target_id>  (478) 
1

>  <reference_id>  (478) 
52

>  <inspiration_ids>  (478) 
[52, 106]

>  <energy_score>  (478) 
-23.473654786800125

>  <distance_score>  (478) 
15.25721906373731

>  <path>  (478) 
/opt/xchem-fragalysis-2/maxwin/BulkDock/SCRATCH/511023/C27122-P52/C27122-P52.minimised.mol

>  <scratch_subdir>  (478) 
/opt/xchem-fragalysis-2/maxwin/BulkDock/SCRATCH/511023/C27122-P52

>  <fragmenstein_runtime>  (478) 
17.39706301689148

>  <fragmenstein_outcome>  (478) 
too moved

>  <fragmenstein_mode>  (478) 
expansion

>  <fragmenstein_error>  (478) 


$$$$
C27122-P106
     RDKit          3D

 31 34  0  0  0  0  0  0  0  0999 V2000
    2.9305  -17.3660   20.7945 O   0  0  0  0  0  0  0  0  0  0  0  0
    2.1775  -16.5179   20.3932 C   0  0  0  0  0  0  0  0  0  0  0  0
    0.7036  -16.4760   20.3685 N   0  0  0  0  0  0  0  0  0  0  0  0
   -0.2611  -17.3773   20.8938 C   0  0  0  0  0  0  0  0  0  0  0  0
   -0.1102  -18.5711   21.4563 N   0  0  0  0  0  0  0  0  0  0  0  0
   -1.2925  -18.8920   22.1373 C   0  0  0  0  0  0  0  0  0  0  0  0
   -1.5966  -19.9582   23.0168 C   0  0  0  0  0  0  0  0  0  0  0  0
   -2.8401  -19.9807   23.6698 C   0  0  0  0  0  0  0  0  0  0  0  0
   -3.2378  -21.3861   24.8723 Br  0  0  0  0  0  0  0  0  0  0  0  0
   -3.7832  -18.9782   23.4471 C   0  0  0  0  0  0  0  0  0  0  0  0
   -3.5102  -17.9251   22.5529 C   0  0  0  0  0  0  0  0  0  0  0  0
   -2.2491  -17.9091   21.9183 C   0  0  0  0  0  0  0  0  0  0  0  0
   -1.6117  -17.0338   21.0415 N   0  0  0  0  0  0  0  0  0  0  0  0
    2.9725  -15.1659   19.9078 C   0  0  0  0  0  0  0  0  0  0  0  0
    4.1571  -14.7868   20.8039 C   0  0  0  0  0  0  0  0  0  0  0  0
    4.9080  -13.7267   20.4577 C   0  0  0  0  0  0  0  0  0  0  0  0
    4.5846  -13.0194   19.3163 N   0  0  0  0  0  0  0  0  0  0  0  0
    5.1918  -11.9159   18.7640 C   0  0  0  0  0  0  0  0  0  0  0  0
    4.4485  -11.6227   17.6487 C   0  0  0  0  0  0  0  0  0  0  0  0
    3.4082  -12.5158   17.5093 N   0  0  0  0  0  0  0  0  0  0  0  0
    3.4948  -13.3775   18.5143 C   0  0  0  0  0  0  0  0  0  0  0  0
    2.6793  -14.4749   18.8217 N   0  0  0  0  0  0  0  0  0  0  0  0
    0.4058  -15.5756   20.0357 H   0  0  0  0  0  0  0  0  0  0  0  0
   -0.8447  -20.7189   23.1984 H   0  0  0  0  0  0  0  0  0  0  0  0
   -4.7428  -19.0033   23.9587 H   0  0  0  0  0  0  0  0  0  0  0  0
   -4.2480  -17.1496   22.3783 H   0  0  0  0  0  0  0  0  0  0  0  0
   -2.0103  -16.1951   20.6584 H   0  0  0  0  0  0  0  0  0  0  0  0
    4.3364  -15.3886   21.6863 H   0  0  0  0  0  0  0  0  0  0  0  0
    5.7577  -13.3926   21.0375 H   0  0  0  0  0  0  0  0  0  0  0  0
    6.0658  -11.4585   19.2026 H   0  0  0  0  0  0  0  0  0  0  0  0
    4.5959  -10.8229   16.9347 H   0  0  0  0  0  0  0  0  0  0  0  0
  1  2  2  0
  2  3  1  0
  3  4  1  0
  4  5  2  0
  5  6  1  0
  6  7  2  0
  7  8  1  0
  8  9  1  0
  8 10  2  0
 10 11  1  0
 11 12  2  0
 12 13  1  0
  2 14  1  0
 14 15  1  0
 15 16  2  0
 16 17  1  0
 17 18  1  0
 18 19  2  0
 19 20  1  0
 20 21  2  0
 21 22  1  0
 13  4  1  0
 22 14  2  0
 12  6  1  0
 21 17  1  0
  3 23  1  0
  7 24  1  0
 10 25  1  0
 11 26  1  0
 13 27  1  0
 15 28  1  0
 16 29  1  0
 18 30  1  0
 19 31  1  0
M  END
>  <Energy>  (479) 
57.979638521703116

>  <compound_id>  (479) 
27122

>  <target_id>  (479) 
1

>  <reference_id>  (479) 
106

>  <inspiration_ids>  (479) 
[52, 106]

>  <energy_score>  (479) 
-15.552493843441198

>  <distance_score>  (479) 
15.698902488622839

>  <path>  (479) 
/opt/xchem-fragalysis-2/maxwin/BulkDock/SCRATCH/511023/C27122-P106/C27122-P106.minimised.mol

>  <scratch_subdir>  (479) 
/opt/xchem-fragalysis-2/maxwin/BulkDock/SCRATCH/511023/C27122-P106

>  <fragmenstein_runtime>  (479) 
14.913161277770996

>  <fragmenstein_outcome>  (479) 
too moved

>  <fragmenstein_mode>  (479) 
expansion

>  <fragmenstein_error>  (479) 


$$$$
C27121-P52
     RDKit          3D

 34 37  0  0  0  0  0  0  0  0999 V2000
   -5.5390  -17.4103   27.9171 C   0  0  0  0  0  0  0  0  0  0  0  0
   -4.9488  -16.2260   28.6937 C   0  0  0  0  0  0  0  0  0  0  0  0
   -5.0658  -16.5364   30.1067 C   0  0  0  0  0  0  0  0  0  0  0  0
   -4.3592  -15.9549   31.1264 C   0  0  0  0  0  0  0  0  0  0  0  0
   -3.4998  -14.9419   30.7765 C   0  0  0  0  0  0  0  0  0  0  0  0
   -3.5646  -14.2356   29.3960 C   0  0  0  0  0  0  0  0  0  0  0  0
   -2.3386  -13.1613   28.6662 N   0  0  0  0  0  0  0  0  0  0  0  0
   -1.3730  -14.0304   27.5708 C   0  0  0  0  0  0  0  0  0  0  0  0
    0.4322  -14.5066   27.8790 N   0  0  0  0  0  0  0  0  0  0  0  0
    1.2164  -15.7920   27.4977 C   0  0  0  0  0  0  0  0  0  0  0  0
    0.8355  -16.8225   26.9992 O   0  0  0  0  0  0  0  0  0  0  0  0
    2.8291  -15.7025   27.6756 C   0  0  0  0  0  0  0  0  0  0  0  0
    3.7779  -16.1343   28.7385 C   0  0  0  0  0  0  0  0  0  0  0  0
    5.0742  -15.7256   28.5923 C   0  0  0  0  0  0  0  0  0  0  0  0
    5.4902  -14.9487   27.4955 N   0  0  0  0  0  0  0  0  0  0  0  0
    6.6914  -14.3598   27.1602 C   0  0  0  0  0  0  0  0  0  0  0  0
    6.4586  -13.6864   25.9796 C   0  0  0  0  0  0  0  0  0  0  0  0
    5.1580  -13.8574   25.5830 N   0  0  0  0  0  0  0  0  0  0  0  0
    4.5975  -14.6299   26.5007 C   0  0  0  0  0  0  0  0  0  0  0  0
    3.3053  -15.0515   26.6301 N   0  0  0  0  0  0  0  0  0  0  0  0
   -2.5966  -14.9361   27.0613 N   0  0  0  0  0  0  0  0  0  0  0  0
   -3.9498  -15.1317   28.2577 C   0  0  0  0  0  0  0  0  0  0  0  0
   -6.0369  -17.1868   26.9866 H   0  0  0  0  0  0  0  0  0  0  0  0
   -6.3796  -17.8190   28.4755 H   0  0  0  0  0  0  0  0  0  0  0  0
   -4.8015  -18.2085   27.7946 H   0  0  0  0  0  0  0  0  0  0  0  0
   -5.5069  -17.4835   30.3834 H   0  0  0  0  0  0  0  0  0  0  0  0
   -4.3817  -16.3553   32.1341 H   0  0  0  0  0  0  0  0  0  0  0  0
   -2.8531  -14.5056   31.5441 H   0  0  0  0  0  0  0  0  0  0  0  0
   -1.6356  -12.8680   29.3030 H   0  0  0  0  0  0  0  0  0  0  0  0
    1.0416  -13.8768   28.3500 H   0  0  0  0  0  0  0  0  0  0  0  0
    3.4183  -16.7356   29.5611 H   0  0  0  0  0  0  0  0  0  0  0  0
    5.8407  -15.9729   29.3164 H   0  0  0  0  0  0  0  0  0  0  0  0
    7.5713  -14.4637   27.7768 H   0  0  0  0  0  0  0  0  0  0  0  0
    7.1521  -13.0942   25.3967 H   0  0  0  0  0  0  0  0  0  0  0  0
  1  2  1  0
  2  3  2  0
  3  4  1  0
  4  5  2  0
  5  6  1  0
  6  7  1  0
  7  8  1  0
  8  9  1  0
  9 10  1  0
 10 11  2  0
 10 12  1  0
 12 13  1  0
 13 14  2  0
 14 15  1  0
 15 16  1  0
 16 17  2  0
 17 18  1  0
 18 19  2  0
 19 20  1  0
  8 21  2  0
 21 22  1  0
 22  2  1  0
 22  6  2  0
 20 12  2  0
 19 15  1  0
  1 23  1  0
  1 24  1  0
  1 25  1  0
  3 26  1  0
  4 27  1  0
  5 28  1  0
  7 29  1  0
  9 30  1  0
 13 31  1  0
 14 32  1  0
 16 33  1  0
 17 34  1  0
M  END
>  <Energy>  (480) 
394.27964379562303

>  <compound_id>  (480) 
27121

>  <target_id>  (480) 
1

>  <reference_id>  (480) 
52

>  <inspiration_ids>  (480) 
[52, 106]

>  <energy_score>  (480) 
302.0551421931282

>  <distance_score>  (480) 
16.77691099404874

>  <path>  (480) 
/opt/xchem-fragalysis-2/maxwin/BulkDock/SCRATCH/511023/C27121-P52/C27121-P52.minimised.mol

>  <scratch_subdir>  (480) 
/opt/xchem-fragalysis-2/maxwin/BulkDock/SCRATCH/511023/C27121-P52

>  <fragmenstein_runtime>  (480) 
16.495798110961914

>  <fragmenstein_outcome>  (480) 
too moved

>  <fragmenstein_mode>  (480) 
expansion

>  <fragmenstein_error>  (480) 


$$$$
C27121-P106
     RDKit          3D

 34 37  0  0  0  0  0  0  0  0999 V2000
    2.2641  -20.3455   26.2990 C   0  0  0  0  0  0  0  0  0  0  0  0
    2.1008  -19.3973   27.4525 C   0  0  0  0  0  0  0  0  0  0  0  0
    1.0870  -19.6486   28.4126 C   0  0  0  0  0  0  0  0  0  0  0  0
    0.8972  -18.7954   29.4947 C   0  0  0  0  0  0  0  0  0  0  0  0
    1.7060  -17.6610   29.6518 C   0  0  0  0  0  0  0  0  0  0  0  0
    2.6905  -17.3972   28.6739 C   0  0  0  0  0  0  0  0  0  0  0  0
    3.6133  -16.3721   28.4799 N   0  0  0  0  0  0  0  0  0  0  0  0
    4.3136  -16.5409   27.2788 C   0  0  0  0  0  0  0  0  0  0  0  0
    5.1121  -15.5171   26.6822 N   0  0  0  0  0  0  0  0  0  0  0  0
    5.8604  -15.4944   25.4074 C   0  0  0  0  0  0  0  0  0  0  0  0
    6.0479  -16.3598   24.5940 O   0  0  0  0  0  0  0  0  0  0  0  0
    6.6063  -14.1144   24.9856 C   0  0  0  0  0  0  0  0  0  0  0  0
    8.0870  -14.0376   25.3091 C   0  0  0  0  0  0  0  0  0  0  0  0
    8.7998  -13.0402   24.7480 C   0  0  0  0  0  0  0  0  0  0  0  0
    8.1661  -12.1164   23.9321 N   0  0  0  0  0  0  0  0  0  0  0  0
    8.6759  -11.0436   23.2384 C   0  0  0  0  0  0  0  0  0  0  0  0
    7.5943  -10.4713   22.6159 C   0  0  0  0  0  0  0  0  0  0  0  0
    6.4437  -11.1574   22.9263 N   0  0  0  0  0  0  0  0  0  0  0  0
    6.7938  -12.1761   23.7011 C   0  0  0  0  0  0  0  0  0  0  0  0
    6.0160  -13.1952   24.2451 N   0  0  0  0  0  0  0  0  0  0  0  0
    3.9474  -17.7222   26.7946 N   0  0  0  0  0  0  0  0  0  0  0  0
    2.9116  -18.2369   27.5959 C   0  0  0  0  0  0  0  0  0  0  0  0
    1.3579  -20.3485   25.6850 H   0  0  0  0  0  0  0  0  0  0  0  0
    2.4510  -21.3592   26.6675 H   0  0  0  0  0  0  0  0  0  0  0  0
    3.1056  -20.0574   25.6613 H   0  0  0  0  0  0  0  0  0  0  0  0
    0.4506  -20.5245   28.3049 H   0  0  0  0  0  0  0  0  0  0  0  0
    0.1207  -19.0101   30.2253 H   0  0  0  0  0  0  0  0  0  0  0  0
    1.5609  -17.0118   30.5081 H   0  0  0  0  0  0  0  0  0  0  0  0
    3.7152  -15.5731   29.0799 H   0  0  0  0  0  0  0  0  0  0  0  0
    5.0924  -14.5848   27.0713 H   0  0  0  0  0  0  0  0  0  0  0  0
    8.5222  -14.8184   25.9193 H   0  0  0  0  0  0  0  0  0  0  0  0
    9.8679  -12.9309   24.8876 H   0  0  0  0  0  0  0  0  0  0  0  0
    9.7276  -10.7984   23.2453 H   0  0  0  0  0  0  0  0  0  0  0  0
    7.5731   -9.6050   21.9675 H   0  0  0  0  0  0  0  0  0  0  0  0
  1  2  1  0
  2  3  2  0
  3  4  1  0
  4  5  2  0
  5  6  1  0
  6  7  1  0
  7  8  1  0
  8  9  1  0
  9 10  1  0
 10 11  2  0
 10 12  1  0
 12 13  1  0
 13 14  2  0
 14 15  1  0
 15 16  1  0
 16 17  2  0
 17 18  1  0
 18 19  2  0
 19 20  1  0
  8 21  2  0
 21 22  1  0
 22  2  1  0
 22  6  2  0
 20 12  2  0
 19 15  1  0
  1 23  1  0
  1 24  1  0
  1 25  1  0
  3 26  1  0
  4 27  1  0
  5 28  1  0
  7 29  1  0
  9 30  1  0
 13 31  1  0
 14 32  1  0
 16 33  1  0
 17 34  1  0
M  END
>  <Energy>  (481) 
73.399137742686818

>  <compound_id>  (481) 
27121

>  <target_id>  (481) 
1

>  <reference_id>  (481) 
106

>  <inspiration_ids>  (481) 
[52, 106]

>  <energy_score>  (481) 
-18.82536385981183

>  <distance_score>  (481) 
15.600519385991557

>  <path>  (481) 
/opt/xchem-fragalysis-2/maxwin/BulkDock/SCRATCH/511023/C27121-P106/C27121-P106.minimised.mol

>  <scratch_subdir>  (481) 
/opt/xchem-fragalysis-2/maxwin/BulkDock/SCRATCH/511023/C27121-P106

>  <fragmenstein_runtime>  (481) 
16.164466619491577

>  <fragmenstein_outcome>  (481) 
too moved

>  <fragmenstein_mode>  (481) 
expansion

>  <fragmenstein_error>  (481) 


$$$$
C27115-P52
     RDKit          3D

 42 46  0  0  0  0  0  0  0  0999 V2000
  -10.2583  -20.7675   32.3471 C   0  0  0  0  0  0  0  0  0  0  0  0
   -9.0617  -20.7524   33.2173 C   0  0  0  0  0  0  0  0  0  0  0  0
   -7.7263  -19.7774   33.1474 C   0  0  0  0  0  0  0  0  0  0  0  0
   -7.2955  -19.4184   31.6678 C   0  0  0  0  0  0  0  0  0  0  0  0
   -5.9103  -18.3927   30.7790 N   0  0  0  0  0  0  0  0  0  0  0  0
   -6.3111  -17.7113   29.0249 C   0  0  0  0  0  0  0  0  0  0  0  0
   -4.9905  -16.8546   27.5596 C   0  0  0  0  0  0  0  0  0  0  0  0
   -3.1674  -16.1714   26.7774 C   0  0  0  0  0  0  0  0  0  0  0  0
   -2.8832  -15.2466   25.0164 C   0  0  0  0  0  0  0  0  0  0  0  0
   -2.2297  -13.4724   24.8339 N   0  0  0  0  0  0  0  0  0  0  0  0
   -0.7768  -12.8432   23.6917 C   0  0  0  0  0  0  0  0  0  0  0  0
    0.8684  -11.8544   24.3697 C   0  0  0  0  0  0  0  0  0  0  0  0
    1.8699  -11.4545   23.1706 C   0  0  0  0  0  0  0  0  0  0  0  0
    1.7642  -10.4651   22.0439 N   0  0  0  0  0  0  0  0  0  0  0  0
    2.6588   -9.1246   21.1146 C   0  0  0  0  0  0  0  0  0  0  0  0
    1.4723   -8.3912   20.1175 C   0  0  0  0  0  0  0  0  0  0  0  0
    0.0536   -9.5591   20.3971 N   0  0  0  0  0  0  0  0  0  0  0  0
    0.2402  -10.6306   21.5816 C   0  0  0  0  0  0  0  0  0  0  0  0
   -0.5022  -12.3053   22.0991 N   0  0  0  0  0  0  0  0  0  0  0  0
   -2.4717  -13.8531   26.7347 C   0  0  0  0  0  0  0  0  0  0  0  0
   -3.9231  -15.0369   27.6370 C   0  0  0  0  0  0  0  0  0  0  0  0
   -8.0604  -18.2969   28.9678 N   0  0  0  0  0  0  0  0  0  0  0  0
   -9.1469  -19.4890   30.5500 C   0  0  0  0  0  0  0  0  0  0  0  0
  -10.3771  -20.0682   31.0925 C   0  0  0  0  0  0  0  0  0  0  0  0
  -11.0911  -21.4038   32.6546 H   0  0  0  0  0  0  0  0  0  0  0  0
   -9.0517  -21.5112   33.9907 H   0  0  0  0  0  0  0  0  0  0  0  0
   -7.1201  -19.5555   34.0098 H   0  0  0  0  0  0  0  0  0  0  0  0
   -5.2940  -17.8670   31.3737 H   0  0  0  0  0  0  0  0  0  0  0  0
   -4.7215  -17.8989   27.2530 H   0  0  0  0  0  0  0  0  0  0  0  0
   -2.6310  -17.1610   26.5409 H   0  0  0  0  0  0  0  0  0  0  0  0
   -2.2237  -15.9139   27.2051 H   0  0  0  0  0  0  0  0  0  0  0  0
   -2.2215  -16.0112   24.7052 H   0  0  0  0  0  0  0  0  0  0  0  0
   -3.6713  -14.9287   24.3633 H   0  0  0  0  0  0  0  0  0  0  0  0
    0.4540  -11.0780   25.0274 H   0  0  0  0  0  0  0  0  0  0  0  0
    2.7842  -12.0243   23.0378 H   0  0  0  0  0  0  0  0  0  0  0  0
    3.7191   -9.2653   20.9434 H   0  0  0  0  0  0  0  0  0  0  0  0
    1.4433   -7.7510   19.2469 H   0  0  0  0  0  0  0  0  0  0  0  0
   -2.2753  -12.9866   27.3316 H   0  0  0  0  0  0  0  0  0  0  0  0
   -1.5883  -14.3335   27.0482 H   0  0  0  0  0  0  0  0  0  0  0  0
   -3.7305  -14.6112   28.6875 H   0  0  0  0  0  0  0  0  0  0  0  0
   -4.8408  -14.8125   28.2951 H   0  0  0  0  0  0  0  0  0  0  0  0
  -11.2653  -20.1266   30.4789 H   0  0  0  0  0  0  0  0  0  0  0  0
  1  2  2  0
  2  3  1  0
  3  4  2  0
  4  5  1  0
  5  6  1  0
  6  7  1  0
  7  8  1  0
  8  9  1  0
  9 10  1  0
 10 11  1  0
 11 12  1  0
 12 13  2  0
 13 14  1  0
 14 15  1  0
 15 16  2  0
 16 17  1  0
 17 18  2  0
 18 19  1  0
 10 20  1  0
 20 21  1  0
  6 22  2  0
 22 23  1  0
 23 24  2  0
 24  1  1  0
 23  4  1  0
 21  7  1  0
 19 11  2  0
 18 14  1  0
  1 25  1  0
  2 26  1  0
  3 27  1  0
  5 28  1  0
  7 29  1  0
  8 30  1  0
  8 31  1  0
  9 32  1  0
  9 33  1  0
 12 34  1  0
 13 35  1  0
 15 36  1  0
 16 37  1  0
 20 38  1  0
 20 39  1  0
 21 40  1  0
 21 41  1  0
 24 42  1  0
M  END
>  <Energy>  (482) 
2509.0387543688539

>  <compound_id>  (482) 
27115

>  <target_id>  (482) 
1

>  <reference_id>  (482) 
52

>  <inspiration_ids>  (482) 
[52, 106]

>  <energy_score>  (482) 
2469.2156766045728

>  <distance_score>  (482) 
13.317560095978672

>  <path>  (482) 
/opt/xchem-fragalysis-2/maxwin/BulkDock/SCRATCH/511023/C27115-P52/C27115-P52.minimised.mol

>  <scratch_subdir>  (482) 
/opt/xchem-fragalysis-2/maxwin/BulkDock/SCRATCH/511023/C27115-P52

>  <fragmenstein_runtime>  (482) 
14.807466506958008

>  <fragmenstein_outcome>  (482) 
too moved

>  <fragmenstein_mode>  (482) 
expansion

>  <fragmenstein_error>  (482) 


$$$$
C27115-P106
     RDKit          3D

 42 46  0  0  0  0  0  0  0  0999 V2000
    1.2759  -19.8132   29.0062 C   0  0  0  0  0  0  0  0  0  0  0  0
    1.2190  -20.5307   27.8152 C   0  0  0  0  0  0  0  0  0  0  0  0
    2.0311  -20.1764   26.7211 C   0  0  0  0  0  0  0  0  0  0  0  0
    2.9049  -19.0810   26.8694 C   0  0  0  0  0  0  0  0  0  0  0  0
    3.8351  -18.4756   26.0293 N   0  0  0  0  0  0  0  0  0  0  0  0
    4.4588  -17.3947   26.6757 C   0  0  0  0  0  0  0  0  0  0  0  0
    5.4729  -16.3428   25.9250 C   0  0  0  0  0  0  0  0  0  0  0  0
    5.3307  -14.8684   26.3732 C   0  0  0  0  0  0  0  0  0  0  0  0
    6.5944  -13.9268   26.3348 C   0  0  0  0  0  0  0  0  0  0  0  0
    7.5014  -14.1367   25.1828 N   0  0  0  0  0  0  0  0  0  0  0  0
    8.1159  -13.0311   24.4340 C   0  0  0  0  0  0  0  0  0  0  0  0
    9.2993  -13.3076   23.4964 C   0  0  0  0  0  0  0  0  0  0  0  0
    9.7981  -12.3124   22.7427 C   0  0  0  0  0  0  0  0  0  0  0  0
    9.2339  -11.0566   22.8232 N   0  0  0  0  0  0  0  0  0  0  0  0
    9.5315   -9.9072   22.1313 C   0  0  0  0  0  0  0  0  0  0  0  0
    8.6336   -8.9761   22.5902 C   0  0  0  0  0  0  0  0  0  0  0  0
    7.8085   -9.5271   23.5445 N   0  0  0  0  0  0  0  0  0  0  0  0
    8.1816  -10.7918   23.6920 C   0  0  0  0  0  0  0  0  0  0  0  0
    7.6584  -11.7839   24.5091 N   0  0  0  0  0  0  0  0  0  0  0  0
    7.7849  -15.5866   24.9692 C   0  0  0  0  0  0  0  0  0  0  0  0
    6.9858  -16.6142   25.8946 C   0  0  0  0  0  0  0  0  0  0  0  0
    3.9136  -17.3175   27.8891 N   0  0  0  0  0  0  0  0  0  0  0  0
    2.9766  -18.3447   28.0373 C   0  0  0  0  0  0  0  0  0  0  0  0
    2.1485  -18.7161   29.1258 C   0  0  0  0  0  0  0  0  0  0  0  0
    0.6516  -20.1000   29.8488 H   0  0  0  0  0  0  0  0  0  0  0  0
    0.5508  -21.3855   27.7299 H   0  0  0  0  0  0  0  0  0  0  0  0
    1.9893  -20.7396   25.7923 H   0  0  0  0  0  0  0  0  0  0  0  0
    4.0001  -18.7500   25.0726 H   0  0  0  0  0  0  0  0  0  0  0  0
    5.1509  -16.3923   24.8741 H   0  0  0  0  0  0  0  0  0  0  0  0
    4.5646  -14.4352   25.7309 H   0  0  0  0  0  0  0  0  0  0  0  0
    4.9398  -14.8323   27.3921 H   0  0  0  0  0  0  0  0  0  0  0  0
    6.2680  -12.8849   26.3831 H   0  0  0  0  0  0  0  0  0  0  0  0
    7.1771  -14.0981   27.2489 H   0  0  0  0  0  0  0  0  0  0  0  0
    9.7047  -14.3080   23.4665 H   0  0  0  0  0  0  0  0  0  0  0  0
   10.6242  -12.4482   22.0576 H   0  0  0  0  0  0  0  0  0  0  0  0
   10.3213   -9.8609   21.3965 H   0  0  0  0  0  0  0  0  0  0  0  0
    8.5316   -7.9402   22.2942 H   0  0  0  0  0  0  0  0  0  0  0  0
    7.5540  -15.8263   23.9248 H   0  0  0  0  0  0  0  0  0  0  0  0
    8.8540  -15.7664   25.1273 H   0  0  0  0  0  0  0  0  0  0  0  0
    7.3905  -16.5690   26.9137 H   0  0  0  0  0  0  0  0  0  0  0  0
    7.1768  -17.6298   25.5283 H   0  0  0  0  0  0  0  0  0  0  0  0
    2.2039  -18.1659   30.0582 H   0  0  0  0  0  0  0  0  0  0  0  0
  1  2  2  0
  2  3  1  0
  3  4  2  0
  4  5  1  0
  5  6  1  0
  6  7  1  0
  7  8  1  0
  8  9  1  0
  9 10  1  0
 10 11  1  0
 11 12  1  0
 12 13  2  0
 13 14  1  0
 14 15  1  0
 15 16  2  0
 16 17  1  0
 17 18  2  0
 18 19  1  0
 10 20  1  0
 20 21  1  0
  6 22  2  0
 22 23  1  0
 23 24  2  0
 24  1  1  0
 23  4  1  0
 21  7  1  0
 19 11  2  0
 18 14  1  0
  1 25  1  0
  2 26  1  0
  3 27  1  0
  5 28  1  0
  7 29  1  0
  8 30  1  0
  8 31  1  0
  9 32  1  0
  9 33  1  0
 12 34  1  0
 13 35  1  0
 15 36  1  0
 16 37  1  0
 20 38  1  0
 20 39  1  0
 21 40  1  0
 21 41  1  0
 24 42  1  0
M  END
>  <Energy>  (483) 
28.751745823821992

>  <compound_id>  (483) 
27115

>  <target_id>  (483) 
1

>  <reference_id>  (483) 
106

>  <inspiration_ids>  (483) 
[52, 106]

>  <energy_score>  (483) 
-11.071331940455707

>  <distance_score>  (483) 
14.740005743113644

>  <path>  (483) 
/opt/xchem-fragalysis-2/maxwin/BulkDock/SCRATCH/511023/C27115-P106/C27115-P106.minimised.mol

>  <scratch_subdir>  (483) 
/opt/xchem-fragalysis-2/maxwin/BulkDock/SCRATCH/511023/C27115-P106

>  <fragmenstein_runtime>  (483) 
22.044312715530396

>  <fragmenstein_outcome>  (483) 
too moved

>  <fragmenstein_mode>  (483) 
expansion

>  <fragmenstein_error>  (483) 


$$$$
C27122-P52
     RDKit          3D

 31 34  0  0  0  0  0  0  0  0999 V2000
    5.1048  -15.8566   24.5502 O   0  0  0  0  0  0  0  0  0  0  0  0
    4.9003  -14.9826   25.3479 C   0  0  0  0  0  0  0  0  0  0  0  0
    4.0851  -14.9752   26.5685 N   0  0  0  0  0  0  0  0  0  0  0  0
    3.2305  -15.9548   27.1147 C   0  0  0  0  0  0  0  0  0  0  0  0
    2.5868  -15.8625   28.2756 N   0  0  0  0  0  0  0  0  0  0  0  0
    1.8829  -17.0491   28.4714 C   0  0  0  0  0  0  0  0  0  0  0  0
    1.1739  -17.5356   29.5944 C   0  0  0  0  0  0  0  0  0  0  0  0
    0.5691  -18.8023   29.5301 C   0  0  0  0  0  0  0  0  0  0  0  0
   -0.2923  -19.5076   31.0608 Br  0  0  0  0  0  0  0  0  0  0  0  0
    0.6025  -19.5490   28.3546 C   0  0  0  0  0  0  0  0  0  0  0  0
    1.3030  -19.0768   27.2291 C   0  0  0  0  0  0  0  0  0  0  0  0
    1.9688  -17.8399   27.3364 C   0  0  0  0  0  0  0  0  0  0  0  0
    2.8420  -17.1420   26.5049 N   0  0  0  0  0  0  0  0  0  0  0  0
    5.6110  -13.5723   24.9371 C   0  0  0  0  0  0  0  0  0  0  0  0
    6.7947  -13.1025   25.7517 C   0  0  0  0  0  0  0  0  0  0  0  0
    7.4963  -12.0548   25.2702 C   0  0  0  0  0  0  0  0  0  0  0  0
    7.1082  -11.4443   24.0845 N   0  0  0  0  0  0  0  0  0  0  0  0
    7.6759  -10.3988   23.3927 C   0  0  0  0  0  0  0  0  0  0  0  0
    6.8786  -10.2248   22.2881 C   0  0  0  0  0  0  0  0  0  0  0  0
    5.8419  -11.1269   22.2959 N   0  0  0  0  0  0  0  0  0  0  0  0
    5.9857  -11.8746   23.3812 C   0  0  0  0  0  0  0  0  0  0  0  0
    5.2391  -12.9551   23.8307 N   0  0  0  0  0  0  0  0  0  0  0  0
    4.2079  -14.0851   27.0463 H   0  0  0  0  0  0  0  0  0  0  0  0
    1.1324  -16.9359   30.4969 H   0  0  0  0  0  0  0  0  0  0  0  0
    0.1144  -20.5198   28.3036 H   0  0  0  0  0  0  0  0  0  0  0  0
    1.3727  -19.6785   26.3277 H   0  0  0  0  0  0  0  0  0  0  0  0
    3.1713  -17.4434   25.5985 H   0  0  0  0  0  0  0  0  0  0  0  0
    7.0577  -13.6393   26.6530 H   0  0  0  0  0  0  0  0  0  0  0  0
    8.3757  -11.6609   25.7639 H   0  0  0  0  0  0  0  0  0  0  0  0
    8.5689   -9.8983   23.7355 H   0  0  0  0  0  0  0  0  0  0  0  0
    6.9860   -9.5068   21.4861 H   0  0  0  0  0  0  0  0  0  0  0  0
  1  2  2  0
  2  3  1  0
  3  4  1  0
  4  5  2  0
  5  6  1  0
  6  7  2  0
  7  8  1  0
  8  9  1  0
  8 10  2  0
 10 11  1  0
 11 12  2  0
 12 13  1  0
  2 14  1  0
 14 15  1  0
 15 16  2  0
 16 17  1  0
 17 18  1  0
 18 19  2  0
 19 20  1  0
 20 21  2  0
 21 22  1  0
 13  4  1  0
 22 14  2  0
 12  6  1  0
 21 17  1  0
  3 23  1  0
  7 24  1  0
 10 25  1  0
 11 26  1  0
 13 27  1  0
 15 28  1  0
 16 29  1  0
 18 30  1  0
 19 31  1  0
M  END
>  <Energy>  (484) 
50.05847757834384

>  <compound_id>  (484) 
27122

>  <target_id>  (484) 
1

>  <reference_id>  (484) 
52

>  <inspiration_ids>  (484) 
[52, 106]

>  <energy_score>  (484) 
-23.473654786800125

>  <distance_score>  (484) 
15.25721906373731

>  <path>  (484) 
/opt/xchem-fragalysis-2/maxwin/BulkDock/SCRATCH/511023/C27122-P52/C27122-P52.minimised.mol

>  <scratch_subdir>  (484) 
/opt/xchem-fragalysis-2/maxwin/BulkDock/SCRATCH/511023/C27122-P52

>  <fragmenstein_runtime>  (484) 
16.660332679748535

>  <fragmenstein_outcome>  (484) 
too moved

>  <fragmenstein_mode>  (484) 
expansion

>  <fragmenstein_error>  (484) 


$$$$
C27122-P106
     RDKit          3D

 31 34  0  0  0  0  0  0  0  0999 V2000
    2.9305  -17.3660   20.7945 O   0  0  0  0  0  0  0  0  0  0  0  0
    2.1775  -16.5179   20.3932 C   0  0  0  0  0  0  0  0  0  0  0  0
    0.7036  -16.4760   20.3685 N   0  0  0  0  0  0  0  0  0  0  0  0
   -0.2611  -17.3773   20.8938 C   0  0  0  0  0  0  0  0  0  0  0  0
   -0.1102  -18.5711   21.4563 N   0  0  0  0  0  0  0  0  0  0  0  0
   -1.2925  -18.8920   22.1373 C   0  0  0  0  0  0  0  0  0  0  0  0
   -1.5966  -19.9582   23.0168 C   0  0  0  0  0  0  0  0  0  0  0  0
   -2.8401  -19.9807   23.6698 C   0  0  0  0  0  0  0  0  0  0  0  0
   -3.2378  -21.3861   24.8723 Br  0  0  0  0  0  0  0  0  0  0  0  0
   -3.7832  -18.9782   23.4471 C   0  0  0  0  0  0  0  0  0  0  0  0
   -3.5102  -17.9251   22.5529 C   0  0  0  0  0  0  0  0  0  0  0  0
   -2.2491  -17.9091   21.9183 C   0  0  0  0  0  0  0  0  0  0  0  0
   -1.6117  -17.0338   21.0415 N   0  0  0  0  0  0  0  0  0  0  0  0
    2.9725  -15.1659   19.9078 C   0  0  0  0  0  0  0  0  0  0  0  0
    4.1571  -14.7868   20.8039 C   0  0  0  0  0  0  0  0  0  0  0  0
    4.9080  -13.7267   20.4577 C   0  0  0  0  0  0  0  0  0  0  0  0
    4.5846  -13.0194   19.3163 N   0  0  0  0  0  0  0  0  0  0  0  0
    5.1918  -11.9159   18.7640 C   0  0  0  0  0  0  0  0  0  0  0  0
    4.4485  -11.6227   17.6487 C   0  0  0  0  0  0  0  0  0  0  0  0
    3.4082  -12.5158   17.5093 N   0  0  0  0  0  0  0  0  0  0  0  0
    3.4948  -13.3775   18.5143 C   0  0  0  0  0  0  0  0  0  0  0  0
    2.6793  -14.4749   18.8217 N   0  0  0  0  0  0  0  0  0  0  0  0
    0.4058  -15.5756   20.0357 H   0  0  0  0  0  0  0  0  0  0  0  0
   -0.8447  -20.7189   23.1984 H   0  0  0  0  0  0  0  0  0  0  0  0
   -4.7428  -19.0033   23.9587 H   0  0  0  0  0  0  0  0  0  0  0  0
   -4.2480  -17.1496   22.3783 H   0  0  0  0  0  0  0  0  0  0  0  0
   -2.0103  -16.1951   20.6584 H   0  0  0  0  0  0  0  0  0  0  0  0
    4.3364  -15.3886   21.6863 H   0  0  0  0  0  0  0  0  0  0  0  0
    5.7577  -13.3926   21.0375 H   0  0  0  0  0  0  0  0  0  0  0  0
    6.0658  -11.4585   19.2026 H   0  0  0  0  0  0  0  0  0  0  0  0
    4.5959  -10.8229   16.9347 H   0  0  0  0  0  0  0  0  0  0  0  0
  1  2  2  0
  2  3  1  0
  3  4  1  0
  4  5  2  0
  5  6  1  0
  6  7  2  0
  7  8  1  0
  8  9  1  0
  8 10  2  0
 10 11  1  0
 11 12  2  0
 12 13  1  0
  2 14  1  0
 14 15  1  0
 15 16  2  0
 16 17  1  0
 17 18  1  0
 18 19  2  0
 19 20  1  0
 20 21  2  0
 21 22  1  0
 13  4  1  0
 22 14  2  0
 12  6  1  0
 21 17  1  0
  3 23  1  0
  7 24  1  0
 10 25  1  0
 11 26  1  0
 13 27  1  0
 15 28  1  0
 16 29  1  0
 18 30  1  0
 19 31  1  0
M  END
>  <Energy>  (485) 
57.979638521703116

>  <compound_id>  (485) 
27122

>  <target_id>  (485) 
1

>  <reference_id>  (485) 
106

>  <inspiration_ids>  (485) 
[52, 106]

>  <energy_score>  (485) 
-15.552493843441198

>  <distance_score>  (485) 
15.698902488622839

>  <path>  (485) 
/opt/xchem-fragalysis-2/maxwin/BulkDock/SCRATCH/511023/C27122-P106/C27122-P106.minimised.mol

>  <scratch_subdir>  (485) 
/opt/xchem-fragalysis-2/maxwin/BulkDock/SCRATCH/511023/C27122-P106

>  <fragmenstein_runtime>  (485) 
14.968284845352173

>  <fragmenstein_outcome>  (485) 
too moved

>  <fragmenstein_mode>  (485) 
expansion

>  <fragmenstein_error>  (485) 


$$$$
C27098-P52
     RDKit          3D

 45 49  0  0  0  0  0  0  0  0999 V2000
   -6.6752  -18.6208   27.5802 C   0  0  0  0  0  0  0  0  0  0  0  0
   -6.7919  -17.3485   28.4849 C   0  0  0  0  0  0  0  0  0  0  0  0
   -7.7214  -16.2577   28.2164 C   0  0  0  0  0  0  0  0  0  0  0  0
   -7.6533  -15.0250   28.8112 C   0  0  0  0  0  0  0  0  0  0  0  0
   -6.4442  -15.0078   29.4219 C   0  0  0  0  0  0  0  0  0  0  0  0
   -5.4416  -14.1849   29.3288 N   0  0  0  0  0  0  0  0  0  0  0  0
   -3.7959  -14.5963   28.6273 C   0  0  0  0  0  0  0  0  0  0  0  0
   -2.2484  -14.9467   27.1480 C   0  0  0  0  0  0  0  0  0  0  0  0
   -1.5215  -13.3982   26.8950 C   0  0  0  0  0  0  0  0  0  0  0  0
    0.4025  -12.8876   26.3300 C   0  0  0  0  0  0  0  0  0  0  0  0
    1.3450  -13.7500   27.1902 C   0  0  0  0  0  0  0  0  0  0  0  0
    1.5370  -15.0744   26.8740 N   0  0  0  0  0  0  0  0  0  0  0  0
    3.3561  -14.7892   27.0405 C   0  0  0  0  0  0  0  0  0  0  0  0
    4.2426  -15.0809   28.1727 C   0  0  0  0  0  0  0  0  0  0  0  0
    5.5959  -14.4502   28.5588 C   0  0  0  0  0  0  0  0  0  0  0  0
    6.1475  -13.3941   28.0967 N   0  0  0  0  0  0  0  0  0  0  0  0
    5.4728  -12.8160   27.0882 C   0  0  0  0  0  0  0  0  0  0  0  0
    5.9724  -11.7698   26.4663 N   0  0  0  0  0  0  0  0  0  0  0  0
    5.4051  -11.7949   25.2705 C   0  0  0  0  0  0  0  0  0  0  0  0
    4.3368  -12.6758   25.2371 C   0  0  0  0  0  0  0  0  0  0  0  0
    4.2271  -13.3774   26.4622 N   0  0  0  0  0  0  0  0  0  0  0  0
   -0.3206  -15.8711   27.0939 C   0  0  0  0  0  0  0  0  0  0  0  0
   -4.0376  -15.0944   30.0659 N   0  0  0  0  0  0  0  0  0  0  0  0
   -5.6181  -15.8345   30.0519 C   0  0  0  0  0  0  0  0  0  0  0  0
   -5.9433  -17.1362   29.5665 C   0  0  0  0  0  0  0  0  0  0  0  0
   -6.2776  -19.5593   27.9416 H   0  0  0  0  0  0  0  0  0  0  0  0
   -7.6479  -18.8523   27.1304 H   0  0  0  0  0  0  0  0  0  0  0  0
   -5.9265  -18.4667   26.8036 H   0  0  0  0  0  0  0  0  0  0  0  0
   -8.5479  -16.3965   27.5067 H   0  0  0  0  0  0  0  0  0  0  0  0
   -8.1916  -14.1667   28.4318 H   0  0  0  0  0  0  0  0  0  0  0  0
   -5.6878  -13.1963   29.3653 H   0  0  0  0  0  0  0  0  0  0  0  0
   -2.7503  -15.4967   26.3600 H   0  0  0  0  0  0  0  0  0  0  0  0
   -1.7648  -12.9873   27.8648 H   0  0  0  0  0  0  0  0  0  0  0  0
   -2.2195  -13.1166   26.0938 H   0  0  0  0  0  0  0  0  0  0  0  0
    0.2976  -11.8678   25.7463 H   0  0  0  0  0  0  0  0  0  0  0  0
    0.9849  -12.7156   25.4314 H   0  0  0  0  0  0  0  0  0  0  0  0
    1.0845  -13.9747   28.2591 H   0  0  0  0  0  0  0  0  0  0  0  0
    2.1553  -13.0742   27.0246 H   0  0  0  0  0  0  0  0  0  0  0  0
    4.0312  -15.5419   29.1291 H   0  0  0  0  0  0  0  0  0  0  0  0
    6.1087  -14.9883   29.3761 H   0  0  0  0  0  0  0  0  0  0  0  0
    5.7748  -11.1427   24.4929 H   0  0  0  0  0  0  0  0  0  0  0  0
    3.7694  -12.9118   24.3681 H   0  0  0  0  0  0  0  0  0  0  0  0
   -0.1915  -16.5196   27.9463 H   0  0  0  0  0  0  0  0  0  0  0  0
   -0.4420  -16.5013   26.1987 H   0  0  0  0  0  0  0  0  0  0  0  0
   -5.4312  -17.9820   30.0079 H   0  0  0  0  0  0  0  0  0  0  0  0
  1  2  1  0
  2  3  2  0
  3  4  1  0
  4  5  2  0
  5  6  1  0
  6  7  1  0
  7  8  1  0
  8  9  1  0
  9 10  1  0
 10 11  1  0
 11 12  1  0
 12 13  1  0
 13 14  2  0
 14 15  1  0
 15 16  2  0
 16 17  1  0
 17 18  2  0
 18 19  1  0
 19 20  2  0
 20 21  1  0
 12 22  1  0
  7 23  2  0
 23 24  1  0
 24 25  2  0
 25  2  1  0
 24  5  1  0
 22  8  1  0
 21 13  1  0
 21 17  1  0
  1 26  1  0
  1 27  1  0
  1 28  1  0
  3 29  1  0
  4 30  1  0
  6 31  1  0
  8 32  1  0
  9 33  1  0
  9 34  1  0
 10 35  1  0
 10 36  1  0
 11 37  1  0
 11 38  1  0
 14 39  1  0
 15 40  1  0
 19 41  1  0
 20 42  1  0
 22 43  1  0
 22 44  1  0
 25 45  1  0
M  END
>  <Energy>  (486) 
1129.1138545488413

>  <compound_id>  (486) 
27098

>  <target_id>  (486) 
1

>  <reference_id>  (486) 
52

>  <inspiration_ids>  (486) 
[52, 106]

>  <energy_score>  (486) 
1002.1870186797873

>  <distance_score>  (486) 
15.413458725679638

>  <path>  (486) 
/opt/xchem-fragalysis-2/maxwin/BulkDock/SCRATCH/511023/C27098-P52/C27098-P52.minimised.mol

>  <scratch_subdir>  (486) 
/opt/xchem-fragalysis-2/maxwin/BulkDock/SCRATCH/511023/C27098-P52

>  <fragmenstein_runtime>  (486) 
20.59052300453186

>  <fragmenstein_outcome>  (486) 
too moved

>  <fragmenstein_mode>  (486) 
expansion

>  <fragmenstein_error>  (486) 


$$$$
C27098-P106
     RDKit          3D

 45 49  0  0  0  0  0  0  0  0999 V2000
   -3.9027  -16.7646   29.2658 C   0  0  0  0  0  0  0  0  0  0  0  0
   -2.9383  -16.4548   27.9724 C   0  0  0  0  0  0  0  0  0  0  0  0
   -2.5712  -17.4250   27.1362 C   0  0  0  0  0  0  0  0  0  0  0  0
   -2.4830  -17.0764   25.7364 C   0  0  0  0  0  0  0  0  0  0  0  0
   -2.3930  -15.6569   24.9723 C   0  0  0  0  0  0  0  0  0  0  0  0
   -1.5913  -15.1811   23.8455 N   0  0  0  0  0  0  0  0  0  0  0  0
   -0.6390  -13.9827   23.8749 C   0  0  0  0  0  0  0  0  0  0  0  0
   -0.3167  -12.3787   22.5658 C   0  0  0  0  0  0  0  0  0  0  0  0
   -1.5997  -11.8230   21.1173 C   0  0  0  0  0  0  0  0  0  0  0  0
   -2.3449  -10.3520   21.0687 C   0  0  0  0  0  0  0  0  0  0  0  0
   -1.6701   -8.9614   21.4706 C   0  0  0  0  0  0  0  0  0  0  0  0
   -0.5470   -9.0660   22.4328 N   0  0  0  0  0  0  0  0  0  0  0  0
    0.1958   -7.7519   23.1472 C   0  0  0  0  0  0  0  0  0  0  0  0
   -0.4334   -7.2116   24.2433 C   0  0  0  0  0  0  0  0  0  0  0  0
   -0.2325   -5.7579   24.6414 C   0  0  0  0  0  0  0  0  0  0  0  0
    0.4062   -4.8338   23.9967 N   0  0  0  0  0  0  0  0  0  0  0  0
    1.1713   -5.3059   22.9754 C   0  0  0  0  0  0  0  0  0  0  0  0
    2.1698   -4.6488   22.4081 N   0  0  0  0  0  0  0  0  0  0  0  0
    3.1717   -5.5262   22.5710 C   0  0  0  0  0  0  0  0  0  0  0  0
    2.6402   -6.7452   22.9436 C   0  0  0  0  0  0  0  0  0  0  0  0
    1.2579   -6.7385   22.6949 N   0  0  0  0  0  0  0  0  0  0  0  0
    0.0270  -10.4665   22.1387 C   0  0  0  0  0  0  0  0  0  0  0  0
   -1.2956  -13.6743   25.2547 N   0  0  0  0  0  0  0  0  0  0  0  0
   -2.0873  -14.7024   25.9409 C   0  0  0  0  0  0  0  0  0  0  0  0
   -2.1662  -15.2666   27.5425 C   0  0  0  0  0  0  0  0  0  0  0  0
   -3.4944  -16.3159   30.1813 H   0  0  0  0  0  0  0  0  0  0  0  0
   -4.9577  -16.4823   29.2828 H   0  0  0  0  0  0  0  0  0  0  0  0
   -4.0724  -17.8502   29.3841 H   0  0  0  0  0  0  0  0  0  0  0  0
   -2.5772  -18.4835   27.4075 H   0  0  0  0  0  0  0  0  0  0  0  0
   -2.0791  -17.9576   25.3047 H   0  0  0  0  0  0  0  0  0  0  0  0
   -1.9748  -15.2477   22.9331 H   0  0  0  0  0  0  0  0  0  0  0  0
    0.6941  -11.9020   22.8753 H   0  0  0  0  0  0  0  0  0  0  0  0
   -1.1033  -11.8025   20.1463 H   0  0  0  0  0  0  0  0  0  0  0  0
   -2.2771  -12.6078   20.7933 H   0  0  0  0  0  0  0  0  0  0  0  0
   -3.2685  -10.3968   21.6297 H   0  0  0  0  0  0  0  0  0  0  0  0
   -2.6815  -10.2368   20.0283 H   0  0  0  0  0  0  0  0  0  0  0  0
   -1.2769   -8.5497   20.5428 H   0  0  0  0  0  0  0  0  0  0  0  0
   -2.4605   -8.3370   21.8780 H   0  0  0  0  0  0  0  0  0  0  0  0
   -1.2570   -7.6565   24.7620 H   0  0  0  0  0  0  0  0  0  0  0  0
   -0.8064   -5.4632   25.5359 H   0  0  0  0  0  0  0  0  0  0  0  0
    4.2098   -5.2575   22.4344 H   0  0  0  0  0  0  0  0  0  0  0  0
    3.1066   -7.6633   23.1665 H   0  0  0  0  0  0  0  0  0  0  0  0
   -0.2250  -10.4543   21.1067 H   0  0  0  0  0  0  0  0  0  0  0  0
    0.9543  -10.2732   21.6482 H   0  0  0  0  0  0  0  0  0  0  0  0
   -1.8340  -14.6303   28.3241 H   0  0  0  0  0  0  0  0  0  0  0  0
  1  2  1  0
  2  3  2  0
  3  4  1  0
  4  5  2  0
  5  6  1  0
  6  7  1  0
  7  8  1  0
  8  9  1  0
  9 10  1  0
 10 11  1  0
 11 12  1  0
 12 13  1  0
 13 14  2  0
 14 15  1  0
 15 16  2  0
 16 17  1  0
 17 18  2  0
 18 19  1  0
 19 20  2  0
 20 21  1  0
 12 22  1  0
  7 23  2  0
 23 24  1  0
 24 25  2  0
 25  2  1  0
 24  5  1  0
 22  8  1  0
 21 13  1  0
 21 17  1  0
  1 26  1  0
  1 27  1  0
  1 28  1  0
  3 29  1  0
  4 30  1  0
  6 31  1  0
  8 32  1  0
  9 33  1  0
  9 34  1  0
 10 35  1  0
 10 36  1  0
 11 37  1  0
 11 38  1  0
 14 39  1  0
 15 40  1  0
 19 41  1  0
 20 42  1  0
 22 43  1  0
 22 44  1  0
 25 45  1  0
M  END
>  <Energy>  (487) 
796.74272222132959

>  <compound_id>  (487) 
27098

>  <target_id>  (487) 
1

>  <reference_id>  (487) 
106

>  <inspiration_ids>  (487) 
[52, 106]

>  <energy_score>  (487) 
669.8158863522848

>  <distance_score>  (487) 
14.640501207672393

>  <path>  (487) 
/opt/xchem-fragalysis-2/maxwin/BulkDock/SCRATCH/511023/C27098-P106/C27098-P106.minimised.mol

>  <scratch_subdir>  (487) 
/opt/xchem-fragalysis-2/maxwin/BulkDock/SCRATCH/511023/C27098-P106

>  <fragmenstein_runtime>  (487) 
23.71581220626831

>  <fragmenstein_outcome>  (487) 
too moved

>  <fragmenstein_mode>  (487) 
expansion

>  <fragmenstein_error>  (487) 


$$$$
C27099-P52
     RDKit          3D

 39 43  0  0  0  0  0  0  0  0999 V2000
   -6.6314  -17.0776   27.8864 C   0  0  0  0  0  0  0  0  0  0  0  0
   -6.4473  -15.8504   28.6257 N   0  0  0  0  0  0  0  0  0  0  0  0
   -5.1598  -14.8876   28.7722 C   0  0  0  0  0  0  0  0  0  0  0  0
   -3.3292  -14.2837   27.6747 C   0  0  0  0  0  0  0  0  0  0  0  0
   -2.3885  -13.3108   26.1862 C   0  0  0  0  0  0  0  0  0  0  0  0
   -0.6878  -12.6225   26.6959 N   0  0  0  0  0  0  0  0  0  0  0  0
    0.0568  -10.7452   26.0611 C   0  0  0  0  0  0  0  0  0  0  0  0
    1.2648   -9.8959   26.6704 C   0  0  0  0  0  0  0  0  0  0  0  0
    2.1465   -8.5288   26.7413 C   0  0  0  0  0  0  0  0  0  0  0  0
    1.7737   -7.4399   26.2337 N   0  0  0  0  0  0  0  0  0  0  0  0
    0.4648   -7.5514   26.3464 C   0  0  0  0  0  0  0  0  0  0  0  0
   -0.3284   -6.5329   26.2219 N   0  0  0  0  0  0  0  0  0  0  0  0
   -1.1467   -6.8492   27.1947 C   0  0  0  0  0  0  0  0  0  0  0  0
   -1.2283   -8.2249   27.3495 C   0  0  0  0  0  0  0  0  0  0  0  0
   -0.3564   -8.9580   26.4461 N   0  0  0  0  0  0  0  0  0  0  0  0
   -1.8620  -13.0944   28.1047 C   0  0  0  0  0  0  0  0  0  0  0  0
   -5.8404  -14.0353   29.6053 N   0  0  0  0  0  0  0  0  0  0  0  0
   -7.2030  -13.9895   29.4322 C   0  0  0  0  0  0  0  0  0  0  0  0
   -8.1538  -13.0280   29.8039 C   0  0  0  0  0  0  0  0  0  0  0  0
   -9.4481  -13.0975   29.2641 C   0  0  0  0  0  0  0  0  0  0  0  0
   -9.7921  -14.0980   28.3586 C   0  0  0  0  0  0  0  0  0  0  0  0
   -8.8736  -15.1000   28.0403 C   0  0  0  0  0  0  0  0  0  0  0  0
   -7.5944  -15.0308   28.6528 C   0  0  0  0  0  0  0  0  0  0  0  0
   -5.7529  -17.4160   27.3643 H   0  0  0  0  0  0  0  0  0  0  0  0
   -7.4423  -16.9521   27.1872 H   0  0  0  0  0  0  0  0  0  0  0  0
   -7.0385  -17.7932   28.5428 H   0  0  0  0  0  0  0  0  0  0  0  0
   -3.4474  -13.7918   28.7629 H   0  0  0  0  0  0  0  0  0  0  0  0
   -2.4068  -13.7317   25.1654 H   0  0  0  0  0  0  0  0  0  0  0  0
   -2.9276  -12.5458   25.6119 H   0  0  0  0  0  0  0  0  0  0  0  0
    1.7249  -10.1405   27.5982 H   0  0  0  0  0  0  0  0  0  0  0  0
    3.1824   -8.6296   27.1125 H   0  0  0  0  0  0  0  0  0  0  0  0
   -1.7007   -6.0802   27.7172 H   0  0  0  0  0  0  0  0  0  0  0  0
   -1.8613   -8.7192   28.0582 H   0  0  0  0  0  0  0  0  0  0  0  0
   -2.5047  -12.2834   28.4433 H   0  0  0  0  0  0  0  0  0  0  0  0
   -1.2336  -13.2791   28.9992 H   0  0  0  0  0  0  0  0  0  0  0  0
   -7.8732  -12.1757   30.4101 H   0  0  0  0  0  0  0  0  0  0  0  0
  -10.1734  -12.3288   29.5222 H   0  0  0  0  0  0  0  0  0  0  0  0
  -10.7921  -14.1190   27.9321 H   0  0  0  0  0  0  0  0  0  0  0  0
   -9.1740  -15.9007   27.3751 H   0  0  0  0  0  0  0  0  0  0  0  0
  1  2  1  0
  2  3  1  0
  3  4  1  0
  4  5  1  0
  5  6  1  0
  6  7  1  0
  7  8  2  0
  8  9  1  0
  9 10  2  0
 10 11  1  0
 11 12  2  0
 12 13  1  0
 13 14  2  0
 14 15  1  0
  6 16  1  0
  3 17  2  0
 17 18  1  0
 18 19  2  0
 19 20  1  0
 20 21  2  0
 21 22  1  0
 22 23  2  0
 23  2  1  0
 16  4  1  0
 23 18  1  0
 15  7  1  0
 15 11  1  0
  1 24  1  0
  1 25  1  0
  1 26  1  0
  4 27  1  0
  5 28  1  0
  5 29  1  0
  8 30  1  0
  9 31  1  0
 13 32  1  0
 14 33  1  0
 16 34  1  0
 16 35  1  0
 19 36  1  0
 20 37  1  0
 21 38  1  0
 22 39  1  0
M  END
>  <Energy>  (488) 
1134.9089308483415

>  <compound_id>  (488) 
27099

>  <target_id>  (488) 
1

>  <reference_id>  (488) 
52

>  <inspiration_ids>  (488) 
[52, 106]

>  <energy_score>  (488) 
1019.6918289625864

>  <distance_score>  (488) 
14.485810552984832

>  <path>  (488) 
/opt/xchem-fragalysis-2/maxwin/BulkDock/SCRATCH/511023/C27099-P52/C27099-P52.minimised.mol

>  <scratch_subdir>  (488) 
/opt/xchem-fragalysis-2/maxwin/BulkDock/SCRATCH/511023/C27099-P52

>  <fragmenstein_runtime>  (488) 
18.70933508872986

>  <fragmenstein_outcome>  (488) 
too moved

>  <fragmenstein_mode>  (488) 
expansion

>  <fragmenstein_error>  (488) 


$$$$
C27099-P106
     RDKit          3D

 39 43  0  0  0  0  0  0  0  0999 V2000
   -5.7986  -17.5481   28.8079 C   0  0  0  0  0  0  0  0  0  0  0  0
   -4.4068  -18.0127   27.5740 N   0  0  0  0  0  0  0  0  0  0  0  0
   -2.8610  -17.1397   26.8624 C   0  0  0  0  0  0  0  0  0  0  0  0
   -2.4893  -15.5497   25.3699 C   0  0  0  0  0  0  0  0  0  0  0  0
   -1.8562  -15.2721   23.9942 C   0  0  0  0  0  0  0  0  0  0  0  0
   -0.6241  -14.0144   23.7068 N   0  0  0  0  0  0  0  0  0  0  0  0
   -0.3248  -12.4775   22.5755 C   0  0  0  0  0  0  0  0  0  0  0  0
    0.4860  -11.2247   22.5247 C   0  0  0  0  0  0  0  0  0  0  0  0
    0.4838   -9.8151   21.4856 C   0  0  0  0  0  0  0  0  0  0  0  0
   -0.6158   -9.2083   21.2147 N   0  0  0  0  0  0  0  0  0  0  0  0
   -1.5393  -10.1552   20.9789 C   0  0  0  0  0  0  0  0  0  0  0  0
   -2.5217   -9.9553   20.1248 N   0  0  0  0  0  0  0  0  0  0  0  0
   -2.8130  -11.1693   19.6324 C   0  0  0  0  0  0  0  0  0  0  0  0
   -2.1471  -12.1281   20.3301 C   0  0  0  0  0  0  0  0  0  0  0  0
   -1.4101  -11.5983   21.3456 N   0  0  0  0  0  0  0  0  0  0  0  0
   -1.5509  -13.8653   25.3375 C   0  0  0  0  0  0  0  0  0  0  0  0
   -2.0621  -18.3316   26.7092 N   0  0  0  0  0  0  0  0  0  0  0  0
   -2.8088  -19.8251   26.9367 C   0  0  0  0  0  0  0  0  0  0  0  0
   -2.4526  -21.1585   27.2808 C   0  0  0  0  0  0  0  0  0  0  0  0
   -3.3294  -22.2374   27.0176 C   0  0  0  0  0  0  0  0  0  0  0  0
   -4.6047  -21.9940   26.5269 C   0  0  0  0  0  0  0  0  0  0  0  0
   -5.0874  -20.6939   26.5618 C   0  0  0  0  0  0  0  0  0  0  0  0
   -4.1828  -19.7214   27.1021 C   0  0  0  0  0  0  0  0  0  0  0  0
   -5.7075  -17.8400   29.8372 H   0  0  0  0  0  0  0  0  0  0  0  0
   -6.7112  -17.6596   28.2060 H   0  0  0  0  0  0  0  0  0  0  0  0
   -5.5537  -16.5024   29.1168 H   0  0  0  0  0  0  0  0  0  0  0  0
   -3.4546  -15.7092   24.8957 H   0  0  0  0  0  0  0  0  0  0  0  0
   -1.1737  -15.8796   24.3437 H   0  0  0  0  0  0  0  0  0  0  0  0
   -2.7069  -15.1863   23.3626 H   0  0  0  0  0  0  0  0  0  0  0  0
   -0.1405  -10.3998   22.8847 H   0  0  0  0  0  0  0  0  0  0  0  0
    1.4440   -9.2810   21.3591 H   0  0  0  0  0  0  0  0  0  0  0  0
   -3.5086  -11.2890   18.8141 H   0  0  0  0  0  0  0  0  0  0  0  0
   -2.0741  -13.1748   20.3309 H   0  0  0  0  0  0  0  0  0  0  0  0
   -2.2627  -12.9977   25.3874 H   0  0  0  0  0  0  0  0  0  0  0  0
   -0.6801  -13.4145   25.7880 H   0  0  0  0  0  0  0  0  0  0  0  0
   -1.5498  -21.3632   27.8370 H   0  0  0  0  0  0  0  0  0  0  0  0
   -2.9997  -23.2557   27.1992 H   0  0  0  0  0  0  0  0  0  0  0  0
   -5.2671  -22.8038   26.2488 H   0  0  0  0  0  0  0  0  0  0  0  0
   -6.1190  -20.4391   26.4412 H   0  0  0  0  0  0  0  0  0  0  0  0
  1  2  1  0
  2  3  1  0
  3  4  1  0
  4  5  1  0
  5  6  1  0
  6  7  1  0
  7  8  2  0
  8  9  1  0
  9 10  2  0
 10 11  1  0
 11 12  2  0
 12 13  1  0
 13 14  2  0
 14 15  1  0
  6 16  1  0
  3 17  2  0
 17 18  1  0
 18 19  2  0
 19 20  1  0
 20 21  2  0
 21 22  1  0
 22 23  2  0
 23  2  1  0
 16  4  1  0
 23 18  1  0
 15  7  1  0
 15 11  1  0
  1 24  1  0
  1 25  1  0
  1 26  1  0
  4 27  1  0
  5 28  1  0
  5 29  1  0
  8 30  1  0
  9 31  1  0
 13 32  1  0
 14 33  1  0
 16 34  1  0
 16 35  1  0
 19 36  1  0
 20 37  1  0
 21 38  1  0
 22 39  1  0
M  END
>  <Energy>  (489) 
1051.9530105667423

>  <compound_id>  (489) 
27099

>  <target_id>  (489) 
1

>  <reference_id>  (489) 
106

>  <inspiration_ids>  (489) 
[52, 106]

>  <energy_score>  (489) 
936.7359086809886

>  <distance_score>  (489) 
14.319225179288892

>  <path>  (489) 
/opt/xchem-fragalysis-2/maxwin/BulkDock/SCRATCH/511023/C27099-P106/C27099-P106.minimised.mol

>  <scratch_subdir>  (489) 
/opt/xchem-fragalysis-2/maxwin/BulkDock/SCRATCH/511023/C27099-P106

>  <fragmenstein_runtime>  (489) 
15.742936372756958

>  <fragmenstein_outcome>  (489) 
too moved

>  <fragmenstein_mode>  (489) 
expansion

>  <fragmenstein_error>  (489) 


$$$$
C27099-P52
     RDKit          3D

 39 43  0  0  0  0  0  0  0  0999 V2000
   -6.6314  -17.0776   27.8864 C   0  0  0  0  0  0  0  0  0  0  0  0
   -6.4473  -15.8504   28.6257 N   0  0  0  0  0  0  0  0  0  0  0  0
   -5.1598  -14.8876   28.7722 C   0  0  0  0  0  0  0  0  0  0  0  0
   -3.3292  -14.2837   27.6747 C   0  0  0  0  0  0  0  0  0  0  0  0
   -2.3885  -13.3108   26.1862 C   0  0  0  0  0  0  0  0  0  0  0  0
   -0.6878  -12.6225   26.6959 N   0  0  0  0  0  0  0  0  0  0  0  0
    0.0568  -10.7452   26.0611 C   0  0  0  0  0  0  0  0  0  0  0  0
    1.2648   -9.8959   26.6704 C   0  0  0  0  0  0  0  0  0  0  0  0
    2.1465   -8.5288   26.7413 C   0  0  0  0  0  0  0  0  0  0  0  0
    1.7737   -7.4399   26.2337 N   0  0  0  0  0  0  0  0  0  0  0  0
    0.4648   -7.5514   26.3464 C   0  0  0  0  0  0  0  0  0  0  0  0
   -0.3284   -6.5329   26.2219 N   0  0  0  0  0  0  0  0  0  0  0  0
   -1.1467   -6.8492   27.1947 C   0  0  0  0  0  0  0  0  0  0  0  0
   -1.2283   -8.2249   27.3495 C   0  0  0  0  0  0  0  0  0  0  0  0
   -0.3564   -8.9580   26.4461 N   0  0  0  0  0  0  0  0  0  0  0  0
   -1.8620  -13.0944   28.1047 C   0  0  0  0  0  0  0  0  0  0  0  0
   -5.8404  -14.0353   29.6053 N   0  0  0  0  0  0  0  0  0  0  0  0
   -7.2030  -13.9895   29.4322 C   0  0  0  0  0  0  0  0  0  0  0  0
   -8.1538  -13.0280   29.8039 C   0  0  0  0  0  0  0  0  0  0  0  0
   -9.4481  -13.0975   29.2641 C   0  0  0  0  0  0  0  0  0  0  0  0
   -9.7921  -14.0980   28.3586 C   0  0  0  0  0  0  0  0  0  0  0  0
   -8.8736  -15.1000   28.0403 C   0  0  0  0  0  0  0  0  0  0  0  0
   -7.5944  -15.0308   28.6528 C   0  0  0  0  0  0  0  0  0  0  0  0
   -5.7529  -17.4160   27.3643 H   0  0  0  0  0  0  0  0  0  0  0  0
   -7.4423  -16.9521   27.1872 H   0  0  0  0  0  0  0  0  0  0  0  0
   -7.0385  -17.7932   28.5428 H   0  0  0  0  0  0  0  0  0  0  0  0
   -3.4474  -13.7918   28.7629 H   0  0  0  0  0  0  0  0  0  0  0  0
   -2.4068  -13.7317   25.1654 H   0  0  0  0  0  0  0  0  0  0  0  0
   -2.9276  -12.5458   25.6119 H   0  0  0  0  0  0  0  0  0  0  0  0
    1.7249  -10.1405   27.5982 H   0  0  0  0  0  0  0  0  0  0  0  0
    3.1824   -8.6296   27.1125 H   0  0  0  0  0  0  0  0  0  0  0  0
   -1.7007   -6.0802   27.7172 H   0  0  0  0  0  0  0  0  0  0  0  0
   -1.8613   -8.7192   28.0582 H   0  0  0  0  0  0  0  0  0  0  0  0
   -2.5047  -12.2834   28.4433 H   0  0  0  0  0  0  0  0  0  0  0  0
   -1.2336  -13.2791   28.9992 H   0  0  0  0  0  0  0  0  0  0  0  0
   -7.8732  -12.1757   30.4101 H   0  0  0  0  0  0  0  0  0  0  0  0
  -10.1734  -12.3288   29.5222 H   0  0  0  0  0  0  0  0  0  0  0  0
  -10.7921  -14.1190   27.9321 H   0  0  0  0  0  0  0  0  0  0  0  0
   -9.1740  -15.9007   27.3751 H   0  0  0  0  0  0  0  0  0  0  0  0
  1  2  1  0
  2  3  1  0
  3  4  1  0
  4  5  1  0
  5  6  1  0
  6  7  1  0
  7  8  2  0
  8  9  1  0
  9 10  2  0
 10 11  1  0
 11 12  2  0
 12 13  1  0
 13 14  2  0
 14 15  1  0
  6 16  1  0
  3 17  2  0
 17 18  1  0
 18 19  2  0
 19 20  1  0
 20 21  2  0
 21 22  1  0
 22 23  2  0
 23  2  1  0
 16  4  1  0
 23 18  1  0
 15  7  1  0
 15 11  1  0
  1 24  1  0
  1 25  1  0
  1 26  1  0
  4 27  1  0
  5 28  1  0
  5 29  1  0
  8 30  1  0
  9 31  1  0
 13 32  1  0
 14 33  1  0
 16 34  1  0
 16 35  1  0
 19 36  1  0
 20 37  1  0
 21 38  1  0
 22 39  1  0
M  END
>  <Energy>  (490) 
1134.9089308483415

>  <compound_id>  (490) 
27099

>  <target_id>  (490) 
1

>  <reference_id>  (490) 
52

>  <inspiration_ids>  (490) 
[52, 106]

>  <energy_score>  (490) 
1019.6918289625864

>  <distance_score>  (490) 
14.485810552984832

>  <path>  (490) 
/opt/xchem-fragalysis-2/maxwin/BulkDock/SCRATCH/511023/C27099-P52/C27099-P52.minimised.mol

>  <scratch_subdir>  (490) 
/opt/xchem-fragalysis-2/maxwin/BulkDock/SCRATCH/511023/C27099-P52

>  <fragmenstein_runtime>  (490) 
19.219982624053955

>  <fragmenstein_outcome>  (490) 
too moved

>  <fragmenstein_mode>  (490) 
expansion

>  <fragmenstein_error>  (490) 


$$$$
C27099-P106
     RDKit          3D

 39 43  0  0  0  0  0  0  0  0999 V2000
   -5.7986  -17.5481   28.8079 C   0  0  0  0  0  0  0  0  0  0  0  0
   -4.4068  -18.0127   27.5740 N   0  0  0  0  0  0  0  0  0  0  0  0
   -2.8610  -17.1397   26.8624 C   0  0  0  0  0  0  0  0  0  0  0  0
   -2.4893  -15.5497   25.3699 C   0  0  0  0  0  0  0  0  0  0  0  0
   -1.8562  -15.2721   23.9942 C   0  0  0  0  0  0  0  0  0  0  0  0
   -0.6241  -14.0144   23.7068 N   0  0  0  0  0  0  0  0  0  0  0  0
   -0.3248  -12.4775   22.5755 C   0  0  0  0  0  0  0  0  0  0  0  0
    0.4860  -11.2247   22.5247 C   0  0  0  0  0  0  0  0  0  0  0  0
    0.4838   -9.8151   21.4856 C   0  0  0  0  0  0  0  0  0  0  0  0
   -0.6158   -9.2083   21.2147 N   0  0  0  0  0  0  0  0  0  0  0  0
   -1.5393  -10.1552   20.9789 C   0  0  0  0  0  0  0  0  0  0  0  0
   -2.5217   -9.9553   20.1248 N   0  0  0  0  0  0  0  0  0  0  0  0
   -2.8130  -11.1693   19.6324 C   0  0  0  0  0  0  0  0  0  0  0  0
   -2.1471  -12.1281   20.3301 C   0  0  0  0  0  0  0  0  0  0  0  0
   -1.4101  -11.5983   21.3456 N   0  0  0  0  0  0  0  0  0  0  0  0
   -1.5509  -13.8653   25.3375 C   0  0  0  0  0  0  0  0  0  0  0  0
   -2.0621  -18.3316   26.7092 N   0  0  0  0  0  0  0  0  0  0  0  0
   -2.8088  -19.8251   26.9367 C   0  0  0  0  0  0  0  0  0  0  0  0
   -2.4526  -21.1585   27.2808 C   0  0  0  0  0  0  0  0  0  0  0  0
   -3.3294  -22.2374   27.0176 C   0  0  0  0  0  0  0  0  0  0  0  0
   -4.6047  -21.9940   26.5269 C   0  0  0  0  0  0  0  0  0  0  0  0
   -5.0874  -20.6939   26.5618 C   0  0  0  0  0  0  0  0  0  0  0  0
   -4.1828  -19.7214   27.1021 C   0  0  0  0  0  0  0  0  0  0  0  0
   -5.7075  -17.8400   29.8372 H   0  0  0  0  0  0  0  0  0  0  0  0
   -6.7112  -17.6596   28.2060 H   0  0  0  0  0  0  0  0  0  0  0  0
   -5.5537  -16.5024   29.1168 H   0  0  0  0  0  0  0  0  0  0  0  0
   -3.4546  -15.7092   24.8957 H   0  0  0  0  0  0  0  0  0  0  0  0
   -1.1737  -15.8796   24.3437 H   0  0  0  0  0  0  0  0  0  0  0  0
   -2.7069  -15.1863   23.3626 H   0  0  0  0  0  0  0  0  0  0  0  0
   -0.1405  -10.3998   22.8847 H   0  0  0  0  0  0  0  0  0  0  0  0
    1.4440   -9.2810   21.3591 H   0  0  0  0  0  0  0  0  0  0  0  0
   -3.5086  -11.2890   18.8141 H   0  0  0  0  0  0  0  0  0  0  0  0
   -2.0741  -13.1748   20.3309 H   0  0  0  0  0  0  0  0  0  0  0  0
   -2.2627  -12.9977   25.3874 H   0  0  0  0  0  0  0  0  0  0  0  0
   -0.6801  -13.4145   25.7880 H   0  0  0  0  0  0  0  0  0  0  0  0
   -1.5498  -21.3632   27.8370 H   0  0  0  0  0  0  0  0  0  0  0  0
   -2.9997  -23.2557   27.1992 H   0  0  0  0  0  0  0  0  0  0  0  0
   -5.2671  -22.8038   26.2488 H   0  0  0  0  0  0  0  0  0  0  0  0
   -6.1190  -20.4391   26.4412 H   0  0  0  0  0  0  0  0  0  0  0  0
  1  2  1  0
  2  3  1  0
  3  4  1  0
  4  5  1  0
  5  6  1  0
  6  7  1  0
  7  8  2  0
  8  9  1  0
  9 10  2  0
 10 11  1  0
 11 12  2  0
 12 13  1  0
 13 14  2  0
 14 15  1  0
  6 16  1  0
  3 17  2  0
 17 18  1  0
 18 19  2  0
 19 20  1  0
 20 21  2  0
 21 22  1  0
 22 23  2  0
 23  2  1  0
 16  4  1  0
 23 18  1  0
 15  7  1  0
 15 11  1  0
  1 24  1  0
  1 25  1  0
  1 26  1  0
  4 27  1  0
  5 28  1  0
  5 29  1  0
  8 30  1  0
  9 31  1  0
 13 32  1  0
 14 33  1  0
 16 34  1  0
 16 35  1  0
 19 36  1  0
 20 37  1  0
 21 38  1  0
 22 39  1  0
M  END
>  <Energy>  (491) 
1051.9530105667423

>  <compound_id>  (491) 
27099

>  <target_id>  (491) 
1

>  <reference_id>  (491) 
106

>  <inspiration_ids>  (491) 
[52, 106]

>  <energy_score>  (491) 
936.7359086809886

>  <distance_score>  (491) 
14.319225179288892

>  <path>  (491) 
/opt/xchem-fragalysis-2/maxwin/BulkDock/SCRATCH/511023/C27099-P106/C27099-P106.minimised.mol

>  <scratch_subdir>  (491) 
/opt/xchem-fragalysis-2/maxwin/BulkDock/SCRATCH/511023/C27099-P106

>  <fragmenstein_runtime>  (491) 
19.2050621509552

>  <fragmenstein_outcome>  (491) 
too moved

>  <fragmenstein_mode>  (491) 
expansion

>  <fragmenstein_error>  (491) 


$$$$
C27098-P52
     RDKit          3D

 45 49  0  0  0  0  0  0  0  0999 V2000
   -6.6752  -18.6208   27.5802 C   0  0  0  0  0  0  0  0  0  0  0  0
   -6.7919  -17.3485   28.4849 C   0  0  0  0  0  0  0  0  0  0  0  0
   -7.7214  -16.2577   28.2164 C   0  0  0  0  0  0  0  0  0  0  0  0
   -7.6533  -15.0250   28.8112 C   0  0  0  0  0  0  0  0  0  0  0  0
   -6.4442  -15.0078   29.4219 C   0  0  0  0  0  0  0  0  0  0  0  0
   -5.4416  -14.1849   29.3288 N   0  0  0  0  0  0  0  0  0  0  0  0
   -3.7959  -14.5963   28.6273 C   0  0  0  0  0  0  0  0  0  0  0  0
   -2.2484  -14.9467   27.1480 C   0  0  0  0  0  0  0  0  0  0  0  0
   -1.5215  -13.3982   26.8950 C   0  0  0  0  0  0  0  0  0  0  0  0
    0.4025  -12.8876   26.3300 C   0  0  0  0  0  0  0  0  0  0  0  0
    1.3450  -13.7500   27.1902 C   0  0  0  0  0  0  0  0  0  0  0  0
    1.5370  -15.0744   26.8740 N   0  0  0  0  0  0  0  0  0  0  0  0
    3.3561  -14.7892   27.0405 C   0  0  0  0  0  0  0  0  0  0  0  0
    4.2426  -15.0809   28.1727 C   0  0  0  0  0  0  0  0  0  0  0  0
    5.5959  -14.4502   28.5588 C   0  0  0  0  0  0  0  0  0  0  0  0
    6.1475  -13.3941   28.0967 N   0  0  0  0  0  0  0  0  0  0  0  0
    5.4728  -12.8160   27.0882 C   0  0  0  0  0  0  0  0  0  0  0  0
    5.9724  -11.7698   26.4663 N   0  0  0  0  0  0  0  0  0  0  0  0
    5.4051  -11.7949   25.2705 C   0  0  0  0  0  0  0  0  0  0  0  0
    4.3368  -12.6758   25.2371 C   0  0  0  0  0  0  0  0  0  0  0  0
    4.2271  -13.3774   26.4622 N   0  0  0  0  0  0  0  0  0  0  0  0
   -0.3206  -15.8711   27.0939 C   0  0  0  0  0  0  0  0  0  0  0  0
   -4.0376  -15.0944   30.0659 N   0  0  0  0  0  0  0  0  0  0  0  0
   -5.6181  -15.8345   30.0519 C   0  0  0  0  0  0  0  0  0  0  0  0
   -5.9433  -17.1362   29.5665 C   0  0  0  0  0  0  0  0  0  0  0  0
   -6.2776  -19.5593   27.9416 H   0  0  0  0  0  0  0  0  0  0  0  0
   -7.6479  -18.8523   27.1304 H   0  0  0  0  0  0  0  0  0  0  0  0
   -5.9265  -18.4667   26.8036 H   0  0  0  0  0  0  0  0  0  0  0  0
   -8.5479  -16.3965   27.5067 H   0  0  0  0  0  0  0  0  0  0  0  0
   -8.1916  -14.1667   28.4318 H   0  0  0  0  0  0  0  0  0  0  0  0
   -5.6878  -13.1963   29.3653 H   0  0  0  0  0  0  0  0  0  0  0  0
   -2.7503  -15.4967   26.3600 H   0  0  0  0  0  0  0  0  0  0  0  0
   -1.7648  -12.9873   27.8648 H   0  0  0  0  0  0  0  0  0  0  0  0
   -2.2195  -13.1166   26.0938 H   0  0  0  0  0  0  0  0  0  0  0  0
    0.2976  -11.8678   25.7463 H   0  0  0  0  0  0  0  0  0  0  0  0
    0.9849  -12.7156   25.4314 H   0  0  0  0  0  0  0  0  0  0  0  0
    1.0845  -13.9747   28.2591 H   0  0  0  0  0  0  0  0  0  0  0  0
    2.1553  -13.0742   27.0246 H   0  0  0  0  0  0  0  0  0  0  0  0
    4.0312  -15.5419   29.1291 H   0  0  0  0  0  0  0  0  0  0  0  0
    6.1087  -14.9883   29.3761 H   0  0  0  0  0  0  0  0  0  0  0  0
    5.7748  -11.1427   24.4929 H   0  0  0  0  0  0  0  0  0  0  0  0
    3.7694  -12.9118   24.3681 H   0  0  0  0  0  0  0  0  0  0  0  0
   -0.1915  -16.5196   27.9463 H   0  0  0  0  0  0  0  0  0  0  0  0
   -0.4420  -16.5013   26.1987 H   0  0  0  0  0  0  0  0  0  0  0  0
   -5.4312  -17.9820   30.0079 H   0  0  0  0  0  0  0  0  0  0  0  0
  1  2  1  0
  2  3  2  0
  3  4  1  0
  4  5  2  0
  5  6  1  0
  6  7  1  0
  7  8  1  0
  8  9  1  0
  9 10  1  0
 10 11  1  0
 11 12  1  0
 12 13  1  0
 13 14  2  0
 14 15  1  0
 15 16  2  0
 16 17  1  0
 17 18  2  0
 18 19  1  0
 19 20  2  0
 20 21  1  0
 12 22  1  0
  7 23  2  0
 23 24  1  0
 24 25  2  0
 25  2  1  0
 24  5  1  0
 22  8  1  0
 21 13  1  0
 21 17  1  0
  1 26  1  0
  1 27  1  0
  1 28  1  0
  3 29  1  0
  4 30  1  0
  6 31  1  0
  8 32  1  0
  9 33  1  0
  9 34  1  0
 10 35  1  0
 10 36  1  0
 11 37  1  0
 11 38  1  0
 14 39  1  0
 15 40  1  0
 19 41  1  0
 20 42  1  0
 22 43  1  0
 22 44  1  0
 25 45  1  0
M  END
>  <Energy>  (492) 
1129.1138545488413

>  <compound_id>  (492) 
27098

>  <target_id>  (492) 
1

>  <reference_id>  (492) 
52

>  <inspiration_ids>  (492) 
[52, 106]

>  <energy_score>  (492) 
1002.1870186797873

>  <distance_score>  (492) 
15.413458725679638

>  <path>  (492) 
/opt/xchem-fragalysis-2/maxwin/BulkDock/SCRATCH/511023/C27098-P52/C27098-P52.minimised.mol

>  <scratch_subdir>  (492) 
/opt/xchem-fragalysis-2/maxwin/BulkDock/SCRATCH/511023/C27098-P52

>  <fragmenstein_runtime>  (492) 
18.284691095352173

>  <fragmenstein_outcome>  (492) 
too moved

>  <fragmenstein_mode>  (492) 
expansion

>  <fragmenstein_error>  (492) 


$$$$
C27098-P106
     RDKit          3D

 45 49  0  0  0  0  0  0  0  0999 V2000
   -3.9027  -16.7646   29.2658 C   0  0  0  0  0  0  0  0  0  0  0  0
   -2.9383  -16.4548   27.9724 C   0  0  0  0  0  0  0  0  0  0  0  0
   -2.5712  -17.4250   27.1362 C   0  0  0  0  0  0  0  0  0  0  0  0
   -2.4830  -17.0764   25.7364 C   0  0  0  0  0  0  0  0  0  0  0  0
   -2.3930  -15.6569   24.9723 C   0  0  0  0  0  0  0  0  0  0  0  0
   -1.5913  -15.1811   23.8455 N   0  0  0  0  0  0  0  0  0  0  0  0
   -0.6390  -13.9827   23.8749 C   0  0  0  0  0  0  0  0  0  0  0  0
   -0.3167  -12.3787   22.5658 C   0  0  0  0  0  0  0  0  0  0  0  0
   -1.5997  -11.8230   21.1173 C   0  0  0  0  0  0  0  0  0  0  0  0
   -2.3449  -10.3520   21.0687 C   0  0  0  0  0  0  0  0  0  0  0  0
   -1.6701   -8.9614   21.4706 C   0  0  0  0  0  0  0  0  0  0  0  0
   -0.5470   -9.0660   22.4328 N   0  0  0  0  0  0  0  0  0  0  0  0
    0.1958   -7.7519   23.1472 C   0  0  0  0  0  0  0  0  0  0  0  0
   -0.4334   -7.2116   24.2433 C   0  0  0  0  0  0  0  0  0  0  0  0
   -0.2325   -5.7579   24.6414 C   0  0  0  0  0  0  0  0  0  0  0  0
    0.4062   -4.8338   23.9967 N   0  0  0  0  0  0  0  0  0  0  0  0
    1.1713   -5.3059   22.9754 C   0  0  0  0  0  0  0  0  0  0  0  0
    2.1698   -4.6488   22.4081 N   0  0  0  0  0  0  0  0  0  0  0  0
    3.1717   -5.5262   22.5710 C   0  0  0  0  0  0  0  0  0  0  0  0
    2.6402   -6.7452   22.9436 C   0  0  0  0  0  0  0  0  0  0  0  0
    1.2579   -6.7385   22.6949 N   0  0  0  0  0  0  0  0  0  0  0  0
    0.0270  -10.4665   22.1387 C   0  0  0  0  0  0  0  0  0  0  0  0
   -1.2956  -13.6743   25.2547 N   0  0  0  0  0  0  0  0  0  0  0  0
   -2.0873  -14.7024   25.9409 C   0  0  0  0  0  0  0  0  0  0  0  0
   -2.1662  -15.2666   27.5425 C   0  0  0  0  0  0  0  0  0  0  0  0
   -3.4944  -16.3159   30.1813 H   0  0  0  0  0  0  0  0  0  0  0  0
   -4.9577  -16.4823   29.2828 H   0  0  0  0  0  0  0  0  0  0  0  0
   -4.0724  -17.8502   29.3841 H   0  0  0  0  0  0  0  0  0  0  0  0
   -2.5772  -18.4835   27.4075 H   0  0  0  0  0  0  0  0  0  0  0  0
   -2.0791  -17.9576   25.3047 H   0  0  0  0  0  0  0  0  0  0  0  0
   -1.9748  -15.2477   22.9331 H   0  0  0  0  0  0  0  0  0  0  0  0
    0.6941  -11.9020   22.8753 H   0  0  0  0  0  0  0  0  0  0  0  0
   -1.1033  -11.8025   20.1463 H   0  0  0  0  0  0  0  0  0  0  0  0
   -2.2771  -12.6078   20.7933 H   0  0  0  0  0  0  0  0  0  0  0  0
   -3.2685  -10.3968   21.6297 H   0  0  0  0  0  0  0  0  0  0  0  0
   -2.6815  -10.2368   20.0283 H   0  0  0  0  0  0  0  0  0  0  0  0
   -1.2769   -8.5497   20.5428 H   0  0  0  0  0  0  0  0  0  0  0  0
   -2.4605   -8.3370   21.8780 H   0  0  0  0  0  0  0  0  0  0  0  0
   -1.2570   -7.6565   24.7620 H   0  0  0  0  0  0  0  0  0  0  0  0
   -0.8064   -5.4632   25.5359 H   0  0  0  0  0  0  0  0  0  0  0  0
    4.2098   -5.2575   22.4344 H   0  0  0  0  0  0  0  0  0  0  0  0
    3.1066   -7.6633   23.1665 H   0  0  0  0  0  0  0  0  0  0  0  0
   -0.2250  -10.4543   21.1067 H   0  0  0  0  0  0  0  0  0  0  0  0
    0.9543  -10.2732   21.6482 H   0  0  0  0  0  0  0  0  0  0  0  0
   -1.8340  -14.6303   28.3241 H   0  0  0  0  0  0  0  0  0  0  0  0
  1  2  1  0
  2  3  2  0
  3  4  1  0
  4  5  2  0
  5  6  1  0
  6  7  1  0
  7  8  1  0
  8  9  1  0
  9 10  1  0
 10 11  1  0
 11 12  1  0
 12 13  1  0
 13 14  2  0
 14 15  1  0
 15 16  2  0
 16 17  1  0
 17 18  2  0
 18 19  1  0
 19 20  2  0
 20 21  1  0
 12 22  1  0
  7 23  2  0
 23 24  1  0
 24 25  2  0
 25  2  1  0
 24  5  1  0
 22  8  1  0
 21 13  1  0
 21 17  1  0
  1 26  1  0
  1 27  1  0
  1 28  1  0
  3 29  1  0
  4 30  1  0
  6 31  1  0
  8 32  1  0
  9 33  1  0
  9 34  1  0
 10 35  1  0
 10 36  1  0
 11 37  1  0
 11 38  1  0
 14 39  1  0
 15 40  1  0
 19 41  1  0
 20 42  1  0
 22 43  1  0
 22 44  1  0
 25 45  1  0
M  END
>  <Energy>  (493) 
796.74272222132959

>  <compound_id>  (493) 
27098

>  <target_id>  (493) 
1

>  <reference_id>  (493) 
106

>  <inspiration_ids>  (493) 
[52, 106]

>  <energy_score>  (493) 
669.8158863522848

>  <distance_score>  (493) 
14.640501207672393

>  <path>  (493) 
/opt/xchem-fragalysis-2/maxwin/BulkDock/SCRATCH/511023/C27098-P106/C27098-P106.minimised.mol

>  <scratch_subdir>  (493) 
/opt/xchem-fragalysis-2/maxwin/BulkDock/SCRATCH/511023/C27098-P106

>  <fragmenstein_runtime>  (493) 
24.27833843231201

>  <fragmenstein_outcome>  (493) 
too moved

>  <fragmenstein_mode>  (493) 
expansion

>  <fragmenstein_error>  (493) 


$$$$
C46491-P80
     RDKit          3D

 43 45  0  0  0  0  0  0  0  0999 V2000
    3.0690  -22.3481   20.2431 C   0  0  0  0  0  0  0  0  0  0  0  0
    3.2786  -22.1015   21.7308 C   0  0  0  0  0  0  0  0  0  0  0  0
    3.7655  -20.6546   21.9934 C   0  0  0  0  0  0  0  0  0  0  0  0
    2.0080  -22.4767   22.5926 C   0  0  0  0  0  0  0  0  0  0  0  0
    1.1092  -23.9075   22.3376 C   0  0  0  0  0  0  0  0  0  0  0  0
    2.0316  -25.1045   22.6460 C   0  0  0  0  0  0  0  0  0  0  0  0
    2.2562  -25.2885   24.0714 N   0  0  0  0  0  0  0  0  0  0  0  0
    2.4806  -25.6956   21.7013 O   0  0  0  0  0  0  0  0  0  0  0  0
   -0.2304  -24.0558   23.0417 N   0  0  0  0  0  0  0  0  0  0  0  0
   -0.6456  -23.0175   23.8717 C   0  0  0  0  0  0  0  0  0  0  0  0
   -1.9225  -23.2899   24.2569 C   0  0  0  0  0  0  0  0  0  0  0  0
   -2.3024  -24.4919   23.7723 N   0  0  0  0  0  0  0  0  0  0  0  0
   -1.2860  -25.0431   23.1001 C   0  0  0  0  0  0  0  0  0  0  0  0
   -1.5121  -26.4895   22.6770 C   0  0  0  0  0  0  0  0  0  0  0  0
   -0.6874  -27.2931   21.9056 C   0  0  0  0  0  0  0  0  0  0  0  0
   -1.0251  -28.6566   21.6415 C   0  0  0  0  0  0  0  0  0  0  0  0
   -2.1820  -29.2868   22.1107 C   0  0  0  0  0  0  0  0  0  0  0  0
   -2.4340  -30.5887   21.8346 N   0  0  0  0  0  0  0  0  0  0  0  0
   -3.5798  -31.1365   22.3064 C   0  0  0  0  0  0  0  0  0  0  0  0
   -4.5073  -30.4352   23.0482 C   0  0  0  0  0  0  0  0  0  0  0  0
   -4.2346  -29.0991   23.3367 C   0  0  0  0  0  0  0  0  0  0  0  0
   -3.0516  -28.4969   22.8703 C   0  0  0  0  0  0  0  0  0  0  0  0
   -2.7083  -27.1375   23.1369 C   0  0  0  0  0  0  0  0  0  0  0  0
    2.2888  -21.7037   19.8378 H   0  0  0  0  0  0  0  0  0  0  0  0
    2.7910  -23.3871   20.0454 H   0  0  0  0  0  0  0  0  0  0  0  0
    3.9908  -22.1495   19.6870 H   0  0  0  0  0  0  0  0  0  0  0  0
    4.0798  -22.7761   22.0606 H   0  0  0  0  0  0  0  0  0  0  0  0
    3.0495  -19.9532   21.5676 H   0  0  0  0  0  0  0  0  0  0  0  0
    3.8405  -20.4658   23.0690 H   0  0  0  0  0  0  0  0  0  0  0  0
    4.7554  -20.4983   21.5586 H   0  0  0  0  0  0  0  0  0  0  0  0
    2.3487  -22.5232   23.6366 H   0  0  0  0  0  0  0  0  0  0  0  0
    1.3411  -21.6225   22.5688 H   0  0  0  0  0  0  0  0  0  0  0  0
    0.8254  -23.9301   21.2781 H   0  0  0  0  0  0  0  0  0  0  0  0
    1.6093  -24.6715   24.5987 H   0  0  0  0  0  0  0  0  0  0  0  0
    1.7917  -24.5189   24.5896 H   0  0  0  0  0  0  0  0  0  0  0  0
   -0.0386  -22.1515   24.0900 H   0  0  0  0  0  0  0  0  0  0  0  0
   -2.5841  -22.6882   24.8663 H   0  0  0  0  0  0  0  0  0  0  0  0
    0.2404  -26.9147   21.4884 H   0  0  0  0  0  0  0  0  0  0  0  0
   -0.3348  -29.2499   21.0422 H   0  0  0  0  0  0  0  0  0  0  0  0
   -3.7358  -32.1837   22.0631 H   0  0  0  0  0  0  0  0  0  0  0  0
   -5.4153  -30.9155   23.3971 H   0  0  0  0  0  0  0  0  0  0  0  0
   -4.9512  -28.5308   23.9244 H   0  0  0  0  0  0  0  0  0  0  0  0
   -3.4098  -26.5614   23.7433 H   0  0  0  0  0  0  0  0  0  0  0  0
  1  2  1  0
  2  3  1  0
  2  4  1  0
  4  5  1  0
  5  6  1  0
  6  7  1  0
  6  8  2  0
  5  9  1  0
  9 10  1  0
 10 11  2  0
 11 12  1  0
 12 13  2  0
 13 14  1  0
 14 15  2  0
 15 16  1  0
 16 17  2  0
 17 18  1  0
 18 19  2  0
 19 20  1  0
 20 21  2  0
 21 22  1  0
 22 23  2  0
 13  9  1  0
 23 14  1  0
 22 17  1  0
  1 24  1  0
  1 25  1  0
  1 26  1  0
  2 27  1  0
  3 28  1  0
  3 29  1  0
  3 30  1  0
  4 31  1  0
  4 32  1  0
  5 33  1  0
  7 34  1  0
  7 35  1  0
 10 36  1  0
 11 37  1  0
 15 38  1  0
 16 39  1  0
 19 40  1  0
 20 41  1  0
 21 42  1  0
 23 43  1  0
M  END
>  <Energy>  (494) 
255.5996578838184

>  <compound_id>  (494) 
46491

>  <target_id>  (494) 
1

>  <reference_id>  (494) 
80

>  <inspiration_ids>  (494) 
[80, 68]

>  <energy_score>  (494) 
173.19045463627742

>  <distance_score>  (494) 
15.705391459174363

>  <path>  (494) 
/opt/xchem-fragalysis-2/maxwin/BulkDock/SCRATCH/511023/C46491-P80/C46491-P80.minimised.mol

>  <scratch_subdir>  (494) 
/opt/xchem-fragalysis-2/maxwin/BulkDock/SCRATCH/511023/C46491-P80

>  <fragmenstein_runtime>  (494) 
29.030096530914307

>  <fragmenstein_outcome>  (494) 
too moved

>  <fragmenstein_mode>  (494) 
expansion

>  <fragmenstein_error>  (494) 


$$$$
C46491-P68
     RDKit          3D

 43 45  0  0  0  0  0  0  0  0999 V2000
    0.8142  -22.1087   23.4113 C   0  0  0  0  0  0  0  0  0  0  0  0
    0.3522  -21.6442   22.0303 C   0  0  0  0  0  0  0  0  0  0  0  0
    1.5616  -21.1558   21.2244 C   0  0  0  0  0  0  0  0  0  0  0  0
   -0.3852  -22.8029   21.2615 C   0  0  0  0  0  0  0  0  0  0  0  0
   -1.4666  -23.8033   22.0342 C   0  0  0  0  0  0  0  0  0  0  0  0
   -2.5538  -22.9309   22.7163 C   0  0  0  0  0  0  0  0  0  0  0  0
   -2.9189  -23.4330   24.0332 N   0  0  0  0  0  0  0  0  0  0  0  0
   -2.9548  -21.9789   22.1052 O   0  0  0  0  0  0  0  0  0  0  0  0
   -2.1714  -24.8198   21.1823 N   0  0  0  0  0  0  0  0  0  0  0  0
   -2.1311  -24.7626   19.8007 C   0  0  0  0  0  0  0  0  0  0  0  0
   -3.0705  -25.6454   19.3444 C   0  0  0  0  0  0  0  0  0  0  0  0
   -3.6539  -26.2938   20.3848 N   0  0  0  0  0  0  0  0  0  0  0  0
   -3.0624  -25.8783   21.4976 C   0  0  0  0  0  0  0  0  0  0  0  0
   -3.3833  -26.6144   22.7465 C   0  0  0  0  0  0  0  0  0  0  0  0
   -4.7291  -26.8055   23.1025 C   0  0  0  0  0  0  0  0  0  0  0  0
   -5.1084  -27.7426   24.0833 C   0  0  0  0  0  0  0  0  0  0  0  0
   -4.1780  -28.5447   24.7283 C   0  0  0  0  0  0  0  0  0  0  0  0
   -4.5787  -29.4621   25.6308 N   0  0  0  0  0  0  0  0  0  0  0  0
   -3.6511  -30.2499   26.2106 C   0  0  0  0  0  0  0  0  0  0  0  0
   -2.3009  -30.1479   25.9472 C   0  0  0  0  0  0  0  0  0  0  0  0
   -1.8825  -29.1880   25.0275 C   0  0  0  0  0  0  0  0  0  0  0  0
   -2.8225  -28.3660   24.3862 C   0  0  0  0  0  0  0  0  0  0  0  0
   -2.4388  -27.4100   23.4051 C   0  0  0  0  0  0  0  0  0  0  0  0
    1.4704  -22.9825   23.3365 H   0  0  0  0  0  0  0  0  0  0  0  0
    1.3663  -21.3137   23.9242 H   0  0  0  0  0  0  0  0  0  0  0  0
   -0.0352  -22.3742   24.0470 H   0  0  0  0  0  0  0  0  0  0  0  0
   -0.3467  -20.8100   22.1625 H   0  0  0  0  0  0  0  0  0  0  0  0
    2.2454  -21.9898   21.0300 H   0  0  0  0  0  0  0  0  0  0  0  0
    2.1168  -20.4119   21.7930 H   0  0  0  0  0  0  0  0  0  0  0  0
    1.2264  -20.7767   20.2572 H   0  0  0  0  0  0  0  0  0  0  0  0
   -0.8941  -22.3468   20.4100 H   0  0  0  0  0  0  0  0  0  0  0  0
    0.3740  -23.4749   20.8378 H   0  0  0  0  0  0  0  0  0  0  0  0
   -0.8953  -24.3923   22.7597 H   0  0  0  0  0  0  0  0  0  0  0  0
   -2.4525  -24.3453   24.1889 H   0  0  0  0  0  0  0  0  0  0  0  0
   -2.2831  -24.2106   24.2871 H   0  0  0  0  0  0  0  0  0  0  0  0
   -1.4848  -24.0934   19.2545 H   0  0  0  0  0  0  0  0  0  0  0  0
   -3.3535  -25.8535   18.3206 H   0  0  0  0  0  0  0  0  0  0  0  0
   -5.5109  -26.2691   22.5638 H   0  0  0  0  0  0  0  0  0  0  0  0
   -6.1648  -27.8780   24.3051 H   0  0  0  0  0  0  0  0  0  0  0  0
   -4.0369  -30.9800   26.9157 H   0  0  0  0  0  0  0  0  0  0  0  0
   -1.5889  -30.7980   26.4423 H   0  0  0  0  0  0  0  0  0  0  0  0
   -0.8230  -29.1002   24.8003 H   0  0  0  0  0  0  0  0  0  0  0  0
   -1.3966  -27.3636   23.0932 H   0  0  0  0  0  0  0  0  0  0  0  0
  1  2  1  0
  2  3  1  0
  2  4  1  0
  4  5  1  0
  5  6  1  0
  6  7  1  0
  6  8  2  0
  5  9  1  0
  9 10  1  0
 10 11  2  0
 11 12  1  0
 12 13  2  0
 13 14  1  0
 14 15  2  0
 15 16  1  0
 16 17  2  0
 17 18  1  0
 18 19  2  0
 19 20  1  0
 20 21  2  0
 21 22  1  0
 22 23  2  0
 13  9  1  0
 23 14  1  0
 22 17  1  0
  1 24  1  0
  1 25  1  0
  1 26  1  0
  2 27  1  0
  3 28  1  0
  3 29  1  0
  3 30  1  0
  4 31  1  0
  4 32  1  0
  5 33  1  0
  7 34  1  0
  7 35  1  0
 10 36  1  0
 11 37  1  0
 15 38  1  0
 16 39  1  0
 19 40  1  0
 20 41  1  0
 21 42  1  0
 23 43  1  0
M  END
>  <Energy>  (495) 
246.46013330392529

>  <compound_id>  (495) 
46491

>  <target_id>  (495) 
1

>  <reference_id>  (495) 
68

>  <inspiration_ids>  (495) 
[80, 68]

>  <energy_score>  (495) 
164.05093005638935

>  <distance_score>  (495) 
15.647914547643133

>  <path>  (495) 
/opt/xchem-fragalysis-2/maxwin/BulkDock/SCRATCH/511023/C46491-P68/C46491-P68.minimised.mol

>  <scratch_subdir>  (495) 
/opt/xchem-fragalysis-2/maxwin/BulkDock/SCRATCH/511023/C46491-P68

>  <fragmenstein_runtime>  (495) 
43.584619998931885

>  <fragmenstein_outcome>  (495) 
too moved

>  <fragmenstein_mode>  (495) 
expansion

>  <fragmenstein_error>  (495) 


$$$$
C46492-P80
     RDKit          3D

 33 36  0  0  0  0  0  0  0  0999 V2000
    1.3084  -24.8362   18.9951 O   0  0  0  0  0  0  0  0  0  0  0  0
    0.7400  -25.1424   17.9806 C   0  0  0  0  0  0  0  0  0  0  0  0
   -0.3774  -26.1096   17.7465 N   0  0  0  0  0  0  0  0  0  0  0  0
   -1.0367  -27.0256   18.6434 C   0  0  0  0  0  0  0  0  0  0  0  0
   -0.7258  -27.1144   20.0315 C   0  0  0  0  0  0  0  0  0  0  0  0
   -1.3272  -28.0389   20.9514 C   0  0  0  0  0  0  0  0  0  0  0  0
   -2.2897  -28.9276   20.4171 C   0  0  0  0  0  0  0  0  0  0  0  0
   -2.9617  -29.8931   21.0583 N   0  0  0  0  0  0  0  0  0  0  0  0
   -3.9773  -30.6788   20.0113 S   0  0  0  0  0  0  0  0  0  0  0  0
   -3.5627  -29.7570   18.6232 C   0  0  0  0  0  0  0  0  0  0  0  0
   -2.6184  -28.8249   18.9931 C   0  0  0  0  0  0  0  0  0  0  0  0
   -2.0323  -27.8961   18.0911 C   0  0  0  0  0  0  0  0  0  0  0  0
    1.2902  -24.4098   16.6830 C   0  0  0  0  0  0  0  0  0  0  0  0
    1.0311  -24.9464   15.4317 C   0  0  0  0  0  0  0  0  0  0  0  0
    1.3817  -24.3418   14.2700 N   0  0  0  0  0  0  0  0  0  0  0  0
    2.0795  -23.1769   14.3828 C   0  0  0  0  0  0  0  0  0  0  0  0
    2.4174  -22.5954   15.5974 C   0  0  0  0  0  0  0  0  0  0  0  0
    3.2226  -21.3796   15.5003 N   0  0  0  0  0  0  0  0  0  0  0  0
    3.0607  -20.3239   14.6118 C   0  0  0  0  0  0  0  0  0  0  0  0
    4.2192  -19.5818   14.6412 C   0  0  0  0  0  0  0  0  0  0  0  0
    5.1318  -20.1671   15.4775 N   0  0  0  0  0  0  0  0  0  0  0  0
    4.4890  -21.1949   16.0176 C   0  0  0  0  0  0  0  0  0  0  0  0
    2.0531  -23.2324   16.7827 N   0  0  0  0  0  0  0  0  0  0  0  0
   -0.6651  -26.0571   16.7838 H   0  0  0  0  0  0  0  0  0  0  0  0
    0.0317  -26.4434   20.4414 H   0  0  0  0  0  0  0  0  0  0  0  0
   -1.0449  -28.0685   21.9970 H   0  0  0  0  0  0  0  0  0  0  0  0
   -4.0176  -29.9498   17.6632 H   0  0  0  0  0  0  0  0  0  0  0  0
   -2.3021  -27.8692   17.0426 H   0  0  0  0  0  0  0  0  0  0  0  0
    0.5536  -25.9059   15.2803 H   0  0  0  0  0  0  0  0  0  0  0  0
    2.4017  -22.7521   13.4345 H   0  0  0  0  0  0  0  0  0  0  0  0
    2.1370  -20.1801   14.0655 H   0  0  0  0  0  0  0  0  0  0  0  0
    4.4337  -18.6730   14.0934 H   0  0  0  0  0  0  0  0  0  0  0  0
    4.8983  -21.8879   16.7411 H   0  0  0  0  0  0  0  0  0  0  0  0
  1  2  2  0
  2  3  1  0
  3  4  1  0
  4  5  1  0
  5  6  2  0
  6  7  1  0
  7  8  2  0
  8  9  1  0
  9 10  1  0
 10 11  2  0
 11 12  1  0
  2 13  1  0
 13 14  2  0
 14 15  1  0
 15 16  2  0
 16 17  1  0
 17 18  1  0
 18 19  1  0
 19 20  2  0
 20 21  1  0
 21 22  2  0
 17 23  2  0
 12  4  2  0
 23 13  1  0
 11  7  1  0
 22 18  1  0
  3 24  1  0
  5 25  1  0
  6 26  1  0
 10 27  1  0
 12 28  1  0
 14 29  1  0
 16 30  1  0
 19 31  1  0
 20 32  1  0
 22 33  1  0
M  END
>  <Energy>  (496) 
163.03143827677849

>  <compound_id>  (496) 
46492

>  <target_id>  (496) 
1

>  <reference_id>  (496) 
80

>  <inspiration_ids>  (496) 
[80, 68]

>  <energy_score>  (496) 
4.984181583364034

>  <distance_score>  (496) 
15.147329226762517

>  <path>  (496) 
/opt/xchem-fragalysis-2/maxwin/BulkDock/SCRATCH/511023/C46492-P80/C46492-P80.minimised.mol

>  <scratch_subdir>  (496) 
/opt/xchem-fragalysis-2/maxwin/BulkDock/SCRATCH/511023/C46492-P80

>  <fragmenstein_runtime>  (496) 
16.15253186225891

>  <fragmenstein_outcome>  (496) 
too moved

>  <fragmenstein_mode>  (496) 
expansion

>  <fragmenstein_error>  (496) 


$$$$
C46492-P68
     RDKit          3D

 33 36  0  0  0  0  0  0  0  0999 V2000
    1.0981  -22.6094   19.1147 O   0  0  0  0  0  0  0  0  0  0  0  0
    0.9847  -23.0962   18.0221 C   0  0  0  0  0  0  0  0  0  0  0  0
    0.1707  -24.2579   17.5579 N   0  0  0  0  0  0  0  0  0  0  0  0
   -0.6420  -25.1950   18.2924 C   0  0  0  0  0  0  0  0  0  0  0  0
   -0.8283  -25.1383   19.7074 C   0  0  0  0  0  0  0  0  0  0  0  0
   -1.5815  -26.0901   20.4792 C   0  0  0  0  0  0  0  0  0  0  0  0
   -2.1646  -27.1603   19.7600 C   0  0  0  0  0  0  0  0  0  0  0  0
   -2.8866  -28.1824   20.2387 N   0  0  0  0  0  0  0  0  0  0  0  0
   -3.3368  -29.1904   19.0004 S   0  0  0  0  0  0  0  0  0  0  0  0
   -2.5934  -28.3022   17.7456 C   0  0  0  0  0  0  0  0  0  0  0  0
   -1.9817  -27.2049   18.3074 C   0  0  0  0  0  0  0  0  0  0  0  0
   -1.2512  -26.2545   17.5504 C   0  0  0  0  0  0  0  0  0  0  0  0
    1.9134  -22.4681   16.9064 C   0  0  0  0  0  0  0  0  0  0  0  0
    2.4153  -23.3235   15.9353 C   0  0  0  0  0  0  0  0  0  0  0  0
    3.2103  -22.9196   14.9156 N   0  0  0  0  0  0  0  0  0  0  0  0
    3.5611  -21.6043   14.9263 C   0  0  0  0  0  0  0  0  0  0  0  0
    3.1700  -20.6948   15.9084 C   0  0  0  0  0  0  0  0  0  0  0  0
    3.7518  -19.3466   15.8219 N   0  0  0  0  0  0  0  0  0  0  0  0
    4.8367  -18.9306   15.0500 C   0  0  0  0  0  0  0  0  0  0  0  0
    5.1058  -17.6298   15.4039 C   0  0  0  0  0  0  0  0  0  0  0  0
    4.2009  -17.1804   16.3141 N   0  0  0  0  0  0  0  0  0  0  0  0
    3.4188  -18.2193   16.5406 C   0  0  0  0  0  0  0  0  0  0  0  0
    2.3142  -21.1247   16.9254 N   0  0  0  0  0  0  0  0  0  0  0  0
    0.2498  -24.3393   16.5550 H   0  0  0  0  0  0  0  0  0  0  0  0
   -0.3575  -24.3221   20.2599 H   0  0  0  0  0  0  0  0  0  0  0  0
   -1.6803  -26.0017   21.5541 H   0  0  0  0  0  0  0  0  0  0  0  0
   -2.6430  -28.6234   16.7156 H   0  0  0  0  0  0  0  0  0  0  0  0
   -1.1354  -26.3438   16.4769 H   0  0  0  0  0  0  0  0  0  0  0  0
    2.2286  -24.3912   15.9433 H   0  0  0  0  0  0  0  0  0  0  0  0
    4.1806  -21.3267   14.0809 H   0  0  0  0  0  0  0  0  0  0  0  0
    5.3533  -19.5817   14.3640 H   0  0  0  0  0  0  0  0  0  0  0  0
    5.9080  -17.0059   15.0447 H   0  0  0  0  0  0  0  0  0  0  0  0
    2.6174  -18.2582   17.2534 H   0  0  0  0  0  0  0  0  0  0  0  0
  1  2  2  0
  2  3  1  0
  3  4  1  0
  4  5  1  0
  5  6  2  0
  6  7  1  0
  7  8  2  0
  8  9  1  0
  9 10  1  0
 10 11  2  0
 11 12  1  0
  2 13  1  0
 13 14  2  0
 14 15  1  0
 15 16  2  0
 16 17  1  0
 17 18  1  0
 18 19  1  0
 19 20  2  0
 20 21  1  0
 21 22  2  0
 17 23  2  0
 12  4  2  0
 23 13  1  0
 11  7  1  0
 22 18  1  0
  3 24  1  0
  5 25  1  0
  6 26  1  0
 10 27  1  0
 12 28  1  0
 14 29  1  0
 16 30  1  0
 19 31  1  0
 20 32  1  0
 22 33  1  0
M  END
>  <Energy>  (497) 
151.60321834127069

>  <compound_id>  (497) 
46492

>  <target_id>  (497) 
1

>  <reference_id>  (497) 
68

>  <inspiration_ids>  (497) 
[80, 68]

>  <energy_score>  (497) 
-6.444038352141092

>  <distance_score>  (497) 
15.102056917086198

>  <path>  (497) 
/opt/xchem-fragalysis-2/maxwin/BulkDock/SCRATCH/511023/C46492-P68/C46492-P68.minimised.mol

>  <scratch_subdir>  (497) 
/opt/xchem-fragalysis-2/maxwin/BulkDock/SCRATCH/511023/C46492-P68

>  <fragmenstein_runtime>  (497) 
20.57458734512329

>  <fragmenstein_outcome>  (497) 
too moved

>  <fragmenstein_mode>  (497) 
expansion

>  <fragmenstein_error>  (497) 


$$$$
C46493-P80
     RDKit          3D

 38 40  0  0  0  0  0  0  0  0999 V2000
    6.3185  -21.6651   12.8660 C   0  0  0  0  0  0  0  0  0  0  0  0
    6.4565  -20.8759   14.1556 C   0  0  0  0  0  0  0  0  0  0  0  0
    5.2072  -20.2582   14.5638 N   0  0  0  0  0  0  0  0  0  0  0  0
    4.8850  -18.9541   14.2815 C   0  0  0  0  0  0  0  0  0  0  0  0
    3.7229  -18.6422   14.7924 N   0  0  0  0  0  0  0  0  0  0  0  0
    3.2470  -19.8106   15.3774 C   0  0  0  0  0  0  0  0  0  0  0  0
    4.1611  -20.8548   15.2846 C   0  0  0  0  0  0  0  0  0  0  0  0
    4.2489  -22.2893   15.8828 C   0  0  0  0  0  0  0  0  0  0  0  0
    3.1430  -23.3417   16.2346 N   0  0  0  0  0  0  0  0  0  0  0  0
    3.0504  -23.4234   14.7501 C   0  0  0  0  0  0  0  0  0  0  0  0
    3.2544  -24.6836   16.8067 C   0  0  0  0  0  0  0  0  0  0  0  0
    4.2347  -25.3463   17.0652 O   0  0  0  0  0  0  0  0  0  0  0  0
    1.9046  -25.4048   17.2711 C   0  0  0  0  0  0  0  0  0  0  0  0
    0.5752  -24.7959   17.2504 C   0  0  0  0  0  0  0  0  0  0  0  0
   -0.5002  -25.4842   17.6915 C   0  0  0  0  0  0  0  0  0  0  0  0
   -0.3837  -26.7756   18.2065 N   0  0  0  0  0  0  0  0  0  0  0  0
   -1.3733  -27.5831   18.6729 N   0  0  0  0  0  0  0  0  0  0  0  0
   -0.7534  -28.6811   19.1043 C   0  0  0  0  0  0  0  0  0  0  0  0
    0.6337  -28.6262   18.8865 C   0  0  0  0  0  0  0  0  0  0  0  0
    0.8535  -27.3999   18.2896 C   0  0  0  0  0  0  0  0  0  0  0  0
    1.9985  -26.6722   17.7923 C   0  0  0  0  0  0  0  0  0  0  0  0
    5.5916  -22.4765   12.9691 H   0  0  0  0  0  0  0  0  0  0  0  0
    5.9841  -21.0219   12.0450 H   0  0  0  0  0  0  0  0  0  0  0  0
    7.2808  -22.1040   12.5852 H   0  0  0  0  0  0  0  0  0  0  0  0
    7.1960  -20.0768   14.0282 H   0  0  0  0  0  0  0  0  0  0  0  0
    6.8102  -21.5076   14.9758 H   0  0  0  0  0  0  0  0  0  0  0  0
    5.5255  -18.2924   13.7125 H   0  0  0  0  0  0  0  0  0  0  0  0
    2.2831  -19.8238   15.8778 H   0  0  0  0  0  0  0  0  0  0  0  0
    4.5957  -22.0653   16.9061 H   0  0  0  0  0  0  0  0  0  0  0  0
    5.1308  -22.8267   15.4963 H   0  0  0  0  0  0  0  0  0  0  0  0
    2.6787  -22.5171   14.2580 H   0  0  0  0  0  0  0  0  0  0  0  0
    2.2638  -24.1656   14.5485 H   0  0  0  0  0  0  0  0  0  0  0  0
    3.9307  -23.8696   14.2627 H   0  0  0  0  0  0  0  0  0  0  0  0
    0.4890  -23.7786   16.8865 H   0  0  0  0  0  0  0  0  0  0  0  0
   -1.4935  -25.0681   17.6812 H   0  0  0  0  0  0  0  0  0  0  0  0
   -1.3364  -29.4763   19.5508 H   0  0  0  0  0  0  0  0  0  0  0  0
    1.3761  -29.3727   19.1284 H   0  0  0  0  0  0  0  0  0  0  0  0
    2.9646  -27.1647   17.8631 H   0  0  0  0  0  0  0  0  0  0  0  0
  1  2  1  0
  2  3  1  0
  3  4  1  0
  4  5  2  0
  5  6  1  0
  6  7  2  0
  7  8  1  0
  8  9  1  0
  9 10  1  0
  9 11  1  0
 11 12  2  0
 11 13  1  0
 13 14  1  0
 14 15  2  0
 15 16  1  0
 16 17  1  0
 17 18  2  0
 18 19  1  0
 19 20  2  0
 20 21  1  0
  7  3  1  0
 21 13  2  0
 20 16  1  0
  1 22  1  0
  1 23  1  0
  1 24  1  0
  2 25  1  0
  2 26  1  0
  4 27  1  0
  6 28  1  0
  8 29  1  0
  8 30  1  0
 10 31  1  0
 10 32  1  0
 10 33  1  0
 14 34  1  0
 15 35  1  0
 18 36  1  0
 19 37  1  0
 21 38  1  0
M  END
>  <Energy>  (498) 
104.83354074344507

>  <compound_id>  (498) 
46493

>  <target_id>  (498) 
1

>  <reference_id>  (498) 
80

>  <inspiration_ids>  (498) 
[80, 68]

>  <energy_score>  (498) 
60.530642923900416

>  <distance_score>  (498) 
16.566348731509333

>  <path>  (498) 
/opt/xchem-fragalysis-2/maxwin/BulkDock/SCRATCH/511023/C46493-P80/C46493-P80.minimised.mol

>  <scratch_subdir>  (498) 
/opt/xchem-fragalysis-2/maxwin/BulkDock/SCRATCH/511023/C46493-P80

>  <fragmenstein_runtime>  (498) 
14.56242060661316

>  <fragmenstein_outcome>  (498) 
too moved

>  <fragmenstein_mode>  (498) 
expansion

>  <fragmenstein_error>  (498) 


$$$$
C46493-P68
     RDKit          3D

 38 40  0  0  0  0  0  0  0  0999 V2000
    8.7151  -19.6876   15.7338 C   0  0  0  0  0  0  0  0  0  0  0  0
    7.3392  -20.1222   15.2494 C   0  0  0  0  0  0  0  0  0  0  0  0
    6.2550  -19.1964   15.5321 N   0  0  0  0  0  0  0  0  0  0  0  0
    6.3670  -17.8258   15.6005 C   0  0  0  0  0  0  0  0  0  0  0  0
    5.2025  -17.2547   15.7825 N   0  0  0  0  0  0  0  0  0  0  0  0
    4.2968  -18.2962   15.7728 C   0  0  0  0  0  0  0  0  0  0  0  0
    4.9071  -19.5504   15.6665 C   0  0  0  0  0  0  0  0  0  0  0  0
    4.2801  -20.9520   15.3533 C   0  0  0  0  0  0  0  0  0  0  0  0
    3.7916  -22.1435   16.2984 N   0  0  0  0  0  0  0  0  0  0  0  0
    2.7078  -21.1689   16.6046 C   0  0  0  0  0  0  0  0  0  0  0  0
    3.2193  -23.4452   15.9658 C   0  0  0  0  0  0  0  0  0  0  0  0
    2.8912  -23.9052   14.8950 O   0  0  0  0  0  0  0  0  0  0  0  0
    2.9778  -24.5373   17.1310 C   0  0  0  0  0  0  0  0  0  0  0  0
    3.5546  -25.8794   16.8323 C   0  0  0  0  0  0  0  0  0  0  0  0
    3.0769  -27.0144   17.3782 C   0  0  0  0  0  0  0  0  0  0  0  0
    2.0434  -26.9718   18.3012 N   0  0  0  0  0  0  0  0  0  0  0  0
    1.4620  -28.0302   18.9260 N   0  0  0  0  0  0  0  0  0  0  0  0
    0.5947  -27.4854   19.7779 C   0  0  0  0  0  0  0  0  0  0  0  0
    0.5860  -26.0847   19.6898 C   0  0  0  0  0  0  0  0  0  0  0  0
    1.4904  -25.7565   18.6991 C   0  0  0  0  0  0  0  0  0  0  0  0
    1.9502  -24.5295   18.0374 C   0  0  0  0  0  0  0  0  0  0  0  0
    9.4416  -20.4896   15.5684 H   0  0  0  0  0  0  0  0  0  0  0  0
    9.0696  -18.8046   15.1927 H   0  0  0  0  0  0  0  0  0  0  0  0
    8.7045  -19.4511   16.8027 H   0  0  0  0  0  0  0  0  0  0  0  0
    7.3463  -20.2786   14.1653 H   0  0  0  0  0  0  0  0  0  0  0  0
    7.0913  -21.0710   15.7372 H   0  0  0  0  0  0  0  0  0  0  0  0
    7.3076  -17.3004   15.5041 H   0  0  0  0  0  0  0  0  0  0  0  0
    3.2306  -18.1019   15.8097 H   0  0  0  0  0  0  0  0  0  0  0  0
    3.5773  -20.8395   14.5070 H   0  0  0  0  0  0  0  0  0  0  0  0
    5.0916  -21.4859   14.8347 H   0  0  0  0  0  0  0  0  0  0  0  0
    2.0328  -21.6712   17.3089 H   0  0  0  0  0  0  0  0  0  0  0  0
    3.0408  -20.2941   17.1683 H   0  0  0  0  0  0  0  0  0  0  0  0
    2.0605  -20.9418   15.7519 H   0  0  0  0  0  0  0  0  0  0  0  0
    4.3442  -25.9151   16.0878 H   0  0  0  0  0  0  0  0  0  0  0  0
    3.4568  -27.9973   17.1370 H   0  0  0  0  0  0  0  0  0  0  0  0
    0.0193  -28.1269   20.4324 H   0  0  0  0  0  0  0  0  0  0  0  0
    0.0078  -25.4044   20.2808 H   0  0  0  0  0  0  0  0  0  0  0  0
    1.3764  -23.6267   18.2129 H   0  0  0  0  0  0  0  0  0  0  0  0
  1  2  1  0
  2  3  1  0
  3  4  1  0
  4  5  2  0
  5  6  1  0
  6  7  2  0
  7  8  1  0
  8  9  1  0
  9 10  1  0
  9 11  1  0
 11 12  2  0
 11 13  1  0
 13 14  1  0
 14 15  2  0
 15 16  1  0
 16 17  1  0
 17 18  2  0
 18 19  1  0
 19 20  2  0
 20 21  1  0
  7  3  1  0
 21 13  2  0
 20 16  1  0
  1 22  1  0
  1 23  1  0
  1 24  1  0
  2 25  1  0
  2 26  1  0
  4 27  1  0
  6 28  1  0
  8 29  1  0
  8 30  1  0
 10 31  1  0
 10 32  1  0
 10 33  1  0
 14 34  1  0
 15 35  1  0
 18 36  1  0
 19 37  1  0
 21 38  1  0
M  END
>  <Energy>  (499) 
126.13821027109219

>  <compound_id>  (499) 
46493

>  <target_id>  (499) 
1

>  <reference_id>  (499) 
68

>  <inspiration_ids>  (499) 
[80, 68]

>  <energy_score>  (499) 
81.8353124515532

>  <distance_score>  (499) 
16.6241471838969

>  <path>  (499) 
/opt/xchem-fragalysis-2/maxwin/BulkDock/SCRATCH/511023/C46493-P68/C46493-P68.minimised.mol

>  <scratch_subdir>  (499) 
/opt/xchem-fragalysis-2/maxwin/BulkDock/SCRATCH/511023/C46493-P68

>  <fragmenstein_runtime>  (499) 
19.953956842422485

>  <fragmenstein_outcome>  (499) 
too moved

>  <fragmenstein_mode>  (499) 
expansion

>  <fragmenstein_error>  (499) 


$$$$
C46495-P80
     RDKit          3D

 32 35  0  0  0  0  0  0  0  0999 V2000
    1.7940  -11.7508   14.8265 C   0  0  0  0  0  0  0  0  0  0  0  0
    1.4759  -12.3557   16.2470 N   0  0  0  0  0  0  0  0  0  0  0  0
    1.4834  -11.5352   17.3389 C   0  0  0  0  0  0  0  0  0  0  0  0
    1.3446  -12.7708   17.8986 C   0  0  0  0  0  0  0  0  0  0  0  0
    0.1856  -13.1831   17.7674 N   0  0  0  0  0  0  0  0  0  0  0  0
    0.7263  -14.0117   16.7715 C   0  0  0  0  0  0  0  0  0  0  0  0
   -1.4523  -14.2444   16.2844 C   0  0  0  0  0  0  0  0  0  0  0  0
   -2.1629  -13.9241   15.1184 N   0  0  0  0  0  0  0  0  0  0  0  0
   -3.3720  -14.7308   15.1129 O   0  0  0  0  0  0  0  0  0  0  0  0
   -3.4911  -15.3290   16.3341 C   0  0  0  0  0  0  0  0  0  0  0  0
   -4.5572  -16.5896   16.5683 C   0  0  0  0  0  0  0  0  0  0  0  0
   -5.4245  -17.0804   15.5823 C   0  0  0  0  0  0  0  0  0  0  0  0
   -6.2535  -18.2589   15.7658 C   0  0  0  0  0  0  0  0  0  0  0  0
   -6.2939  -19.0435   16.9264 C   0  0  0  0  0  0  0  0  0  0  0  0
   -7.0221  -20.2013   17.0109 N   0  0  0  0  0  0  0  0  0  0  0  0
   -6.9474  -20.9558   18.1338 C   0  0  0  0  0  0  0  0  0  0  0  0
   -6.1800  -20.5934   19.2130 C   0  0  0  0  0  0  0  0  0  0  0  0
   -5.4509  -19.3994   19.1115 C   0  0  0  0  0  0  0  0  0  0  0  0
   -5.4612  -18.5923   17.9535 C   0  0  0  0  0  0  0  0  0  0  0  0
   -4.6032  -17.4158   17.7489 C   0  0  0  0  0  0  0  0  0  0  0  0
   -2.4049  -14.9494   17.0801 N   0  0  0  0  0  0  0  0  0  0  0  0
    1.1207  -10.8966   14.6832 H   0  0  0  0  0  0  0  0  0  0  0  0
    1.7111  -12.5090   14.0529 H   0  0  0  0  0  0  0  0  0  0  0  0
    2.8004  -11.3163   14.8536 H   0  0  0  0  0  0  0  0  0  0  0  0
    0.9251  -10.6127   17.2455 H   0  0  0  0  0  0  0  0  0  0  0  0
    1.9542  -13.6597   18.2116 H   0  0  0  0  0  0  0  0  0  0  0  0
   -5.4661  -16.5793   14.6153 H   0  0  0  0  0  0  0  0  0  0  0  0
   -6.8729  -18.5749   14.9256 H   0  0  0  0  0  0  0  0  0  0  0  0
   -7.5423  -21.8631   18.1312 H   0  0  0  0  0  0  0  0  0  0  0  0
   -6.1374  -21.1971   20.1123 H   0  0  0  0  0  0  0  0  0  0  0  0
   -4.8171  -19.1234   19.9376 H   0  0  0  0  0  0  0  0  0  0  0  0
   -3.9148  -17.1810   18.5629 H   0  0  0  0  0  0  0  0  0  0  0  0
  1  2  1  0
  2  3  1  0
  3  4  2  0
  4  5  1  0
  5  6  2  0
  6  7  1  0
  7  8  2  0
  8  9  1  0
  9 10  1  0
 10 11  1  0
 11 12  2  0
 12 13  1  0
 13 14  2  0
 14 15  1  0
 15 16  2  0
 16 17  1  0
 17 18  2  0
 18 19  1  0
 19 20  2  0
 10 21  2  0
  6  2  1  0
 21  7  1  0
 20 11  1  0
 19 14  1  0
  1 22  1  0
  1 23  1  0
  1 24  1  0
  3 25  1  0
  4 26  1  0
 12 27  1  0
 13 28  1  0
 16 29  1  0
 17 30  1  0
 18 31  1  0
 20 32  1  0
M  END
>  <Energy>  (500) 
462.87934520339621

>  <compound_id>  (500) 
46495

>  <target_id>  (500) 
1

>  <reference_id>  (500) 
80

>  <inspiration_ids>  (500) 
[80, 68]

>  <energy_score>  (500) 
360.13625493135623

>  <distance_score>  (500) 
18.366034749272732

>  <path>  (500) 
/opt/xchem-fragalysis-2/maxwin/BulkDock/SCRATCH/511023/C46495-P80/C46495-P80.minimised.mol

>  <scratch_subdir>  (500) 
/opt/xchem-fragalysis-2/maxwin/BulkDock/SCRATCH/511023/C46495-P80

>  <fragmenstein_runtime>  (500) 
7.195451736450195

>  <fragmenstein_outcome>  (500) 
too moved

>  <fragmenstein_mode>  (500) 
expansion

>  <fragmenstein_error>  (500) 


$$$$
C46495-P68
     RDKit          3D

 32 35  0  0  0  0  0  0  0  0999 V2000
    1.2163  -23.5873   15.1602 C   0  0  0  0  0  0  0  0  0  0  0  0
    1.5497  -22.6736   16.2239 N   0  0  0  0  0  0  0  0  0  0  0  0
    2.3148  -21.5395   16.0891 C   0  0  0  0  0  0  0  0  0  0  0  0
    2.3646  -21.0081   17.3486 C   0  0  0  0  0  0  0  0  0  0  0  0
    1.7570  -21.8523   18.2542 N   0  0  0  0  0  0  0  0  0  0  0  0
    1.2349  -22.8594   17.5574 C   0  0  0  0  0  0  0  0  0  0  0  0
    0.3466  -24.1583   18.2221 C   0  0  0  0  0  0  0  0  0  0  0  0
    0.4833  -24.4720   19.5213 N   0  0  0  0  0  0  0  0  0  0  0  0
   -0.3525  -25.5807   19.7160 O   0  0  0  0  0  0  0  0  0  0  0  0
   -0.9964  -25.8305   18.5356 C   0  0  0  0  0  0  0  0  0  0  0  0
   -2.0092  -26.9189   18.6110 C   0  0  0  0  0  0  0  0  0  0  0  0
   -1.7469  -28.1218   19.2895 C   0  0  0  0  0  0  0  0  0  0  0  0
   -2.6990  -29.1592   19.3523 C   0  0  0  0  0  0  0  0  0  0  0  0
   -3.9514  -29.0397   18.7678 C   0  0  0  0  0  0  0  0  0  0  0  0
   -4.8276  -30.0580   18.8199 N   0  0  0  0  0  0  0  0  0  0  0  0
   -6.0460  -29.8822   18.2735 C   0  0  0  0  0  0  0  0  0  0  0  0
   -6.4459  -28.7238   17.6476 C   0  0  0  0  0  0  0  0  0  0  0  0
   -5.5304  -27.6807   17.5676 C   0  0  0  0  0  0  0  0  0  0  0  0
   -4.2533  -27.8224   18.1284 C   0  0  0  0  0  0  0  0  0  0  0  0
   -3.2851  -26.7872   18.0460 C   0  0  0  0  0  0  0  0  0  0  0  0
   -0.5818  -25.0116   17.5684 N   0  0  0  0  0  0  0  0  0  0  0  0
    0.1365  -23.7498   15.1556 H   0  0  0  0  0  0  0  0  0  0  0  0
    1.5248  -23.1602   14.2025 H   0  0  0  0  0  0  0  0  0  0  0  0
    1.7451  -24.5278   15.3343 H   0  0  0  0  0  0  0  0  0  0  0  0
    2.6684  -21.1794   15.1335 H   0  0  0  0  0  0  0  0  0  0  0  0
    2.8006  -20.0696   17.6408 H   0  0  0  0  0  0  0  0  0  0  0  0
   -0.7808  -28.2807   19.7676 H   0  0  0  0  0  0  0  0  0  0  0  0
   -2.4441  -30.0815   19.8713 H   0  0  0  0  0  0  0  0  0  0  0  0
   -6.7215  -30.7197   18.3586 H   0  0  0  0  0  0  0  0  0  0  0  0
   -7.4404  -28.6309   17.2266 H   0  0  0  0  0  0  0  0  0  0  0  0
   -5.8176  -26.7586   17.0683 H   0  0  0  0  0  0  0  0  0  0  0  0
   -3.5369  -25.8607   17.5303 H   0  0  0  0  0  0  0  0  0  0  0  0
  1  2  1  0
  2  3  1  0
  3  4  2  0
  4  5  1  0
  5  6  2  0
  6  7  1  0
  7  8  2  0
  8  9  1  0
  9 10  1  0
 10 11  1  0
 11 12  2  0
 12 13  1  0
 13 14  2  0
 14 15  1  0
 15 16  2  0
 16 17  1  0
 17 18  2  0
 18 19  1  0
 19 20  2  0
 10 21  2  0
  6  2  1  0
 21  7  1  0
 20 11  1  0
 19 14  1  0
  1 22  1  0
  1 23  1  0
  1 24  1  0
  3 25  1  0
  4 26  1  0
 12 27  1  0
 13 28  1  0
 16 29  1  0
 17 30  1  0
 18 31  1  0
 20 32  1  0
M  END
>  <Energy>  (501) 
85.773092353347792

>  <compound_id>  (501) 
46495

>  <target_id>  (501) 
1

>  <reference_id>  (501) 
68

>  <inspiration_ids>  (501) 
[80, 68]

>  <energy_score>  (501) 
-16.969997918687284

>  <distance_score>  (501) 
16.20264152035466

>  <path>  (501) 
/opt/xchem-fragalysis-2/maxwin/BulkDock/SCRATCH/511023/C46495-P68/C46495-P68.minimised.mol

>  <scratch_subdir>  (501) 
/opt/xchem-fragalysis-2/maxwin/BulkDock/SCRATCH/511023/C46495-P68

>  <fragmenstein_runtime>  (501) 
10.323911905288696

>  <fragmenstein_outcome>  (501) 
too moved

>  <fragmenstein_mode>  (501) 
expansion

>  <fragmenstein_error>  (501) 


$$$$
C46496-P80
     RDKit          3D

 33 35  0  0  0  0  0  0  0  0999 V2000
    2.0629  -22.8055   18.3976 C   0  0  0  0  0  0  0  0  0  0  0  0
    1.7062  -21.8163   17.4118 N   0  0  0  0  0  0  0  0  0  0  0  0
    2.5623  -20.8695   16.9094 C   0  0  0  0  0  0  0  0  0  0  0  0
    1.9690  -20.0538   16.0775 N   0  0  0  0  0  0  0  0  0  0  0  0
    0.6862  -20.5377   16.0023 C   0  0  0  0  0  0  0  0  0  0  0  0
    0.4796  -21.6648   16.8081 C   0  0  0  0  0  0  0  0  0  0  0  0
   -0.8302  -22.4411   17.0523 C   0  0  0  0  0  0  0  0  0  0  0  0
   -0.7646  -23.7615   17.7280 O   0  0  0  0  0  0  0  0  0  0  0  0
   -2.0413  -24.2759   17.9730 C   0  0  0  0  0  0  0  0  0  0  0  0
   -3.0627  -23.6576   17.6789 O   0  0  0  0  0  0  0  0  0  0  0  0
   -2.2161  -25.6617   18.6145 C   0  0  0  0  0  0  0  0  0  0  0  0
   -1.1870  -26.5642   18.8575 C   0  0  0  0  0  0  0  0  0  0  0  0
   -1.4552  -27.8517   19.4108 C   0  0  0  0  0  0  0  0  0  0  0  0
   -2.7335  -28.3067   19.7446 C   0  0  0  0  0  0  0  0  0  0  0  0
   -2.9162  -29.5484   20.2563 N   0  0  0  0  0  0  0  0  0  0  0  0
   -4.1765  -29.9441   20.5539 C   0  0  0  0  0  0  0  0  0  0  0  0
   -5.2845  -29.1451   20.3585 C   0  0  0  0  0  0  0  0  0  0  0  0
   -5.0858  -27.8645   19.8353 C   0  0  0  0  0  0  0  0  0  0  0  0
   -3.7921  -27.4133   19.5125 C   0  0  0  0  0  0  0  0  0  0  0  0
   -3.5229  -26.1160   18.9592 C   0  0  0  0  0  0  0  0  0  0  0  0
    1.3195  -22.7980   19.1977 H   0  0  0  0  0  0  0  0  0  0  0  0
    3.0455  -22.5693   18.8145 H   0  0  0  0  0  0  0  0  0  0  0  0
    2.0927  -23.7823   17.9084 H   0  0  0  0  0  0  0  0  0  0  0  0
    3.6001  -20.8541   17.1845 H   0  0  0  0  0  0  0  0  0  0  0  0
   -0.0475  -20.0526   15.3701 H   0  0  0  0  0  0  0  0  0  0  0  0
   -1.4833  -21.7885   17.6438 H   0  0  0  0  0  0  0  0  0  0  0  0
   -1.2910  -22.6100   16.0706 H   0  0  0  0  0  0  0  0  0  0  0  0
   -0.1601  -26.2987   18.6161 H   0  0  0  0  0  0  0  0  0  0  0  0
   -0.6173  -28.5274   19.5803 H   0  0  0  0  0  0  0  0  0  0  0  0
   -4.2704  -30.9447   20.9672 H   0  0  0  0  0  0  0  0  0  0  0  0
   -6.2785  -29.5014   20.6125 H   0  0  0  0  0  0  0  0  0  0  0  0
   -5.9491  -27.2214   19.6812 H   0  0  0  0  0  0  0  0  0  0  0  0
   -4.3661  -25.4466   18.7811 H   0  0  0  0  0  0  0  0  0  0  0  0
  1  2  1  0
  2  3  1  0
  3  4  2  0
  4  5  1  0
  5  6  2  0
  6  7  1  0
  7  8  1  0
  8  9  1  0
  9 10  2  0
  9 11  1  0
 11 12  2  0
 12 13  1  0
 13 14  2  0
 14 15  1  0
 15 16  2  0
 16 17  1  0
 17 18  2  0
 18 19  1  0
 19 20  2  0
  6  2  1  0
 20 11  1  0
 19 14  1  0
  1 21  1  0
  1 22  1  0
  1 23  1  0
  3 24  1  0
  5 25  1  0
  7 26  1  0
  7 27  1  0
 12 28  1  0
 13 29  1  0
 16 30  1  0
 17 31  1  0
 18 32  1  0
 20 33  1  0
M  END
>  <Energy>  (502) 
50.92194830534401

>  <compound_id>  (502) 
46496

>  <target_id>  (502) 
1

>  <reference_id>  (502) 
80

>  <inspiration_ids>  (502) 
[80, 68]

>  <energy_score>  (502) 
-7.981803801027127

>  <distance_score>  (502) 
16.1142471082495

>  <path>  (502) 
/opt/xchem-fragalysis-2/maxwin/BulkDock/SCRATCH/511023/C46496-P80/C46496-P80.minimised.mol

>  <scratch_subdir>  (502) 
/opt/xchem-fragalysis-2/maxwin/BulkDock/SCRATCH/511023/C46496-P80

>  <fragmenstein_runtime>  (502) 
11.987727880477905

>  <fragmenstein_outcome>  (502) 
too moved

>  <fragmenstein_mode>  (502) 
expansion

>  <fragmenstein_error>  (502) 


$$$$
C46496-P68
     RDKit          3D

 33 35  0  0  0  0  0  0  0  0999 V2000
    3.6140  -22.2002   15.3754 C   0  0  0  0  0  0  0  0  0  0  0  0
    3.6302  -20.8066   15.7436 N   0  0  0  0  0  0  0  0  0  0  0  0
    4.5439  -19.8795   15.2916 C   0  0  0  0  0  0  0  0  0  0  0  0
    4.3177  -18.6859   15.7763 N   0  0  0  0  0  0  0  0  0  0  0  0
    3.1917  -18.8631   16.5479 C   0  0  0  0  0  0  0  0  0  0  0  0
    2.7322  -20.1910   16.5808 C   0  0  0  0  0  0  0  0  0  0  0  0
    1.4852  -20.7843   17.2982 C   0  0  0  0  0  0  0  0  0  0  0  0
    1.2917  -22.2720   17.4367 O   0  0  0  0  0  0  0  0  0  0  0  0
    0.0883  -22.5534   18.1115 C   0  0  0  0  0  0  0  0  0  0  0  0
   -0.6303  -21.6324   18.5072 O   0  0  0  0  0  0  0  0  0  0  0  0
   -0.4674  -23.9852   18.3916 C   0  0  0  0  0  0  0  0  0  0  0  0
   -1.8510  -24.0898   18.6895 C   0  0  0  0  0  0  0  0  0  0  0  0
   -2.4903  -25.3029   19.0704 C   0  0  0  0  0  0  0  0  0  0  0  0
   -1.8046  -26.4986   19.1892 C   0  0  0  0  0  0  0  0  0  0  0  0
   -2.4626  -27.6251   19.5706 N   0  0  0  0  0  0  0  0  0  0  0  0
   -1.7602  -28.7738   19.6642 C   0  0  0  0  0  0  0  0  0  0  0  0
   -0.4091  -28.8456   19.3935 C   0  0  0  0  0  0  0  0  0  0  0  0
    0.2605  -27.6732   19.0099 C   0  0  0  0  0  0  0  0  0  0  0  0
   -0.4230  -26.4481   18.8930 C   0  0  0  0  0  0  0  0  0  0  0  0
    0.2275  -25.1995   18.4997 C   0  0  0  0  0  0  0  0  0  0  0  0
    2.6375  -22.4373   14.9458 H   0  0  0  0  0  0  0  0  0  0  0  0
    3.8002  -22.7967   16.2720 H   0  0  0  0  0  0  0  0  0  0  0  0
    4.3955  -22.3930   14.6359 H   0  0  0  0  0  0  0  0  0  0  0  0
    5.3426  -20.1413   14.6109 H   0  0  0  0  0  0  0  0  0  0  0  0
    2.7782  -18.0109   17.0660 H   0  0  0  0  0  0  0  0  0  0  0  0
    1.4890  -20.3737   18.3142 H   0  0  0  0  0  0  0  0  0  0  0  0
    0.6126  -20.4041   16.7524 H   0  0  0  0  0  0  0  0  0  0  0  0
   -2.4708  -23.1915   18.6471 H   0  0  0  0  0  0  0  0  0  0  0  0
   -3.5565  -25.2867   19.2883 H   0  0  0  0  0  0  0  0  0  0  0  0
   -2.3236  -29.6521   19.9662 H   0  0  0  0  0  0  0  0  0  0  0  0
    0.1203  -29.7885   19.4798 H   0  0  0  0  0  0  0  0  0  0  0  0
    1.3267  -27.7239   18.8006 H   0  0  0  0  0  0  0  0  0  0  0  0
    1.2996  -25.2035   18.3093 H   0  0  0  0  0  0  0  0  0  0  0  0
  1  2  1  0
  2  3  1  0
  3  4  2  0
  4  5  1  0
  5  6  2  0
  6  7  1  0
  7  8  1  0
  8  9  1  0
  9 10  2  0
  9 11  1  0
 11 12  2  0
 12 13  1  0
 13 14  2  0
 14 15  1  0
 15 16  2  0
 16 17  1  0
 17 18  2  0
 18 19  1  0
 19 20  2  0
  6  2  1  0
 20 11  1  0
 19 14  1  0
  1 21  1  0
  1 22  1  0
  1 23  1  0
  3 24  1  0
  5 25  1  0
  7 26  1  0
  7 27  1  0
 12 28  1  0
 13 29  1  0
 16 30  1  0
 17 31  1  0
 18 32  1  0
 20 33  1  0
M  END
>  <Energy>  (503) 
64.865948946375582

>  <compound_id>  (503) 
46496

>  <target_id>  (503) 
1

>  <reference_id>  (503) 
68

>  <inspiration_ids>  (503) 
[80, 68]

>  <energy_score>  (503) 
5.962196840008517

>  <distance_score>  (503) 
16.380177196674165

>  <path>  (503) 
/opt/xchem-fragalysis-2/maxwin/BulkDock/SCRATCH/511023/C46496-P68/C46496-P68.minimised.mol

>  <scratch_subdir>  (503) 
/opt/xchem-fragalysis-2/maxwin/BulkDock/SCRATCH/511023/C46496-P68

>  <fragmenstein_runtime>  (503) 
39.41277599334717

>  <fragmenstein_outcome>  (503) 
too moved

>  <fragmenstein_mode>  (503) 
expansion

>  <fragmenstein_error>  (503) 


$$$$
C46497-P80
     RDKit          3D

 34 36  0  0  0  0  0  0  0  0999 V2000
    4.3423  -24.8196   16.0940 O   0  0  0  0  0  0  0  0  0  0  0  0
    3.2970  -24.1959   16.2904 C   0  0  0  0  0  0  0  0  0  0  0  0
    3.1772  -22.8405   15.9363 O   0  0  0  0  0  0  0  0  0  0  0  0
    4.3563  -22.3593   15.1831 C   0  0  0  0  0  0  0  0  0  0  0  0
    4.6073  -20.8328   15.0436 C   0  0  0  0  0  0  0  0  0  0  0  0
    5.8453  -20.1861   14.9785 C   0  0  0  0  0  0  0  0  0  0  0  0
    5.7266  -18.8300   14.7623 N   0  0  0  0  0  0  0  0  0  0  0  0
    4.4471  -18.6462   14.5322 C   0  0  0  0  0  0  0  0  0  0  0  0
    3.7329  -19.8157   14.7010 N   0  0  0  0  0  0  0  0  0  0  0  0
    2.3104  -19.9371   14.4377 C   0  0  0  0  0  0  0  0  0  0  0  0
    2.0445  -20.2432   12.9805 C   0  0  0  0  0  0  0  0  0  0  0  0
    2.5212  -21.4640   12.6379 F   0  0  0  0  0  0  0  0  0  0  0  0
    2.6287  -19.3339   12.1648 F   0  0  0  0  0  0  0  0  0  0  0  0
    0.7277  -20.2381   12.6869 F   0  0  0  0  0  0  0  0  0  0  0  0
    2.0802  -24.9439   16.8738 C   0  0  0  0  0  0  0  0  0  0  0  0
    0.7735  -24.3290   17.0954 C   0  0  0  0  0  0  0  0  0  0  0  0
   -0.2643  -25.0586   17.5504 C   0  0  0  0  0  0  0  0  0  0  0  0
   -0.1229  -26.4101   17.8385 N   0  0  0  0  0  0  0  0  0  0  0  0
   -1.0843  -27.2591   18.2533 N   0  0  0  0  0  0  0  0  0  0  0  0
   -0.4697  -28.4332   18.4073 C   0  0  0  0  0  0  0  0  0  0  0  0
    0.8956  -28.3623   18.0830 C   0  0  0  0  0  0  0  0  0  0  0  0
    1.0990  -27.0538   17.6906 C   0  0  0  0  0  0  0  0  0  0  0  0
    2.2068  -26.2722   17.1879 C   0  0  0  0  0  0  0  0  0  0  0  0
    4.2761  -22.7711   14.1700 H   0  0  0  0  0  0  0  0  0  0  0  0
    5.2620  -22.7596   15.6563 H   0  0  0  0  0  0  0  0  0  0  0  0
    6.8209  -20.6428   15.1021 H   0  0  0  0  0  0  0  0  0  0  0  0
    3.9781  -17.7105   14.2522 H   0  0  0  0  0  0  0  0  0  0  0  0
    1.8479  -18.9868   14.7242 H   0  0  0  0  0  0  0  0  0  0  0  0
    1.9176  -20.7200   15.0900 H   0  0  0  0  0  0  0  0  0  0  0  0
    0.6736  -23.2762   16.8717 H   0  0  0  0  0  0  0  0  0  0  0  0
   -1.2513  -24.6509   17.6979 H   0  0  0  0  0  0  0  0  0  0  0  0
   -1.0416  -29.2887   18.7457 H   0  0  0  0  0  0  0  0  0  0  0  0
    1.6257  -29.1579   18.1073 H   0  0  0  0  0  0  0  0  0  0  0  0
    3.1563  -26.7822   17.0446 H   0  0  0  0  0  0  0  0  0  0  0  0
  1  2  2  0
  2  3  1  0
  3  4  1  0
  4  5  1  0
  5  6  2  0
  6  7  1  0
  7  8  2  0
  8  9  1  0
  9 10  1  0
 10 11  1  0
 11 12  1  0
 11 13  1  0
 11 14  1  0
  2 15  1  0
 15 16  1  0
 16 17  2  0
 17 18  1  0
 18 19  1  0
 19 20  2  0
 20 21  1  0
 21 22  2  0
 22 23  1  0
  9  5  1  0
 23 15  2  0
 22 18  1  0
  4 24  1  0
  4 25  1  0
  6 26  1  0
  8 27  1  0
 10 28  1  0
 10 29  1  0
 16 30  1  0
 17 31  1  0
 20 32  1  0
 21 33  1  0
 23 34  1  0
M  END
>  <Energy>  (504) 
47.121448172501729

>  <compound_id>  (504) 
46497

>  <target_id>  (504) 
1

>  <reference_id>  (504) 
80

>  <inspiration_ids>  (504) 
[80, 68]

>  <energy_score>  (504) 
-27.67934036755554

>  <distance_score>  (504) 
17.047776040229564

>  <path>  (504) 
/opt/xchem-fragalysis-2/maxwin/BulkDock/SCRATCH/511023/C46497-P80/C46497-P80.minimised.mol

>  <scratch_subdir>  (504) 
/opt/xchem-fragalysis-2/maxwin/BulkDock/SCRATCH/511023/C46497-P80

>  <fragmenstein_runtime>  (504) 
10.088549375534058

>  <fragmenstein_outcome>  (504) 
too moved

>  <fragmenstein_mode>  (504) 
expansion

>  <fragmenstein_error>  (504) 


$$$$
C46497-P68
     RDKit          3D

 34 36  0  0  0  0  0  0  0  0999 V2000
    8.2786  -13.3991   18.0457 O   0  0  0  0  0  0  0  0  0  0  0  0
    7.6703  -12.8961   18.9946 C   0  0  0  0  0  0  0  0  0  0  0  0
    7.6858  -11.4776   19.1743 O   0  0  0  0  0  0  0  0  0  0  0  0
    8.5302  -10.7936   18.1126 C   0  0  0  0  0  0  0  0  0  0  0  0
    8.6920   -9.1529   17.9835 C   0  0  0  0  0  0  0  0  0  0  0  0
    9.4582   -8.4016   16.3285 C   0  0  0  0  0  0  0  0  0  0  0  0
   10.3935   -6.5001   16.9332 N   0  0  0  0  0  0  0  0  0  0  0  0
    9.9025   -6.1681   18.7548 C   0  0  0  0  0  0  0  0  0  0  0  0
    9.4578   -8.0359   19.3855 N   0  0  0  0  0  0  0  0  0  0  0  0
    9.1583   -8.4663   20.7529 C   0  0  0  0  0  0  0  0  0  0  0  0
   10.0964   -8.0254   21.8504 C   0  0  0  0  0  0  0  0  0  0  0  0
   10.3700   -6.7092   21.8449 F   0  0  0  0  0  0  0  0  0  0  0  0
    9.5340   -8.2975   23.0562 F   0  0  0  0  0  0  0  0  0  0  0  0
   11.2670   -8.6948   21.8056 F   0  0  0  0  0  0  0  0  0  0  0  0
    6.9603  -13.8885   20.0033 C   0  0  0  0  0  0  0  0  0  0  0  0
    5.9857  -13.5125   21.0425 C   0  0  0  0  0  0  0  0  0  0  0  0
    5.5786  -14.4085   21.9750 C   0  0  0  0  0  0  0  0  0  0  0  0
    6.0359  -15.7283   21.9662 N   0  0  0  0  0  0  0  0  0  0  0  0
    5.8442  -16.6834   22.9142 N   0  0  0  0  0  0  0  0  0  0  0  0
    6.3631  -17.7978   22.3883 C   0  0  0  0  0  0  0  0  0  0  0  0
    6.9698  -17.5581   21.1418 C   0  0  0  0  0  0  0  0  0  0  0  0
    6.7947  -16.2060   20.9035 C   0  0  0  0  0  0  0  0  0  0  0  0
    7.2436  -15.2367   19.9140 C   0  0  0  0  0  0  0  0  0  0  0  0
    8.1280  -11.0986   17.1387 H   0  0  0  0  0  0  0  0  0  0  0  0
    9.5535  -11.1700   18.2327 H   0  0  0  0  0  0  0  0  0  0  0  0
    9.9480   -8.9839   15.5457 H   0  0  0  0  0  0  0  0  0  0  0  0
   10.2167   -5.4125   19.5223 H   0  0  0  0  0  0  0  0  0  0  0  0
    9.1952   -9.5607   20.7112 H   0  0  0  0  0  0  0  0  0  0  0  0
    8.1141   -8.2202   20.9537 H   0  0  0  0  0  0  0  0  0  0  0  0
    5.6440  -12.4823   21.0646 H   0  0  0  0  0  0  0  0  0  0  0  0
    4.9182  -14.1501   22.7926 H   0  0  0  0  0  0  0  0  0  0  0  0
    6.3047  -18.7243   22.9424 H   0  0  0  0  0  0  0  0  0  0  0  0
    7.5146  -18.2622   20.5310 H   0  0  0  0  0  0  0  0  0  0  0  0
    7.9258  -15.5974   19.1467 H   0  0  0  0  0  0  0  0  0  0  0  0
  1  2  2  0
  2  3  1  0
  3  4  1  0
  4  5  1  0
  5  6  2  0
  6  7  1  0
  7  8  2  0
  8  9  1  0
  9 10  1  0
 10 11  1  0
 11 12  1  0
 11 13  1  0
 11 14  1  0
  2 15  1  0
 15 16  1  0
 16 17  2  0
 17 18  1  0
 18 19  1  0
 19 20  2  0
 20 21  1  0
 21 22  2  0
 22 23  1  0
  9  5  1  0
 23 15  2  0
 22 18  1  0
  4 24  1  0
  4 25  1  0
  6 26  1  0
  8 27  1  0
 10 28  1  0
 10 29  1  0
 16 30  1  0
 17 31  1  0
 20 32  1  0
 21 33  1  0
 23 34  1  0
M  END
>  <Energy>  (505) 
774.46047544427643

>  <compound_id>  (505) 
46497

>  <target_id>  (505) 
1

>  <reference_id>  (505) 
68

>  <inspiration_ids>  (505) 
[80, 68]

>  <energy_score>  (505) 
699.659686904204

>  <distance_score>  (505) 
20.537596421011283

>  <path>  (505) 
/opt/xchem-fragalysis-2/maxwin/BulkDock/SCRATCH/511023/C46497-P68/C46497-P68.minimised.mol

>  <scratch_subdir>  (505) 
/opt/xchem-fragalysis-2/maxwin/BulkDock/SCRATCH/511023/C46497-P68

>  <fragmenstein_runtime>  (505) 
11.325697898864746

>  <fragmenstein_outcome>  (505) 
too moved

>  <fragmenstein_mode>  (505) 
expansion

>  <fragmenstein_error>  (505) 


$$$$
C46498-P80
     RDKit          3D

 34 36  0  0  0  0  0  0  0  0999 V2000
    2.0908  -20.2167   12.7491 C   0  0  0  0  0  0  0  0  0  0  0  0
    2.1641  -20.1594   14.2654 C   0  0  0  0  0  0  0  0  0  0  0  0
    3.5041  -20.3577   14.7686 N   0  0  0  0  0  0  0  0  0  0  0  0
    4.4881  -19.4024   14.7048 C   0  0  0  0  0  0  0  0  0  0  0  0
    5.6134  -19.8473   15.2130 N   0  0  0  0  0  0  0  0  0  0  0  0
    5.3334  -21.1597   15.5729 C   0  0  0  0  0  0  0  0  0  0  0  0
    4.0184  -21.5375   15.2949 C   0  0  0  0  0  0  0  0  0  0  0  0
    3.3764  -22.9657   15.1727 C   0  0  0  0  0  0  0  0  0  0  0  0
    2.4474  -23.4825   16.2209 O   0  0  0  0  0  0  0  0  0  0  0  0
    1.9546  -24.7629   15.9095 C   0  0  0  0  0  0  0  0  0  0  0  0
    2.2492  -25.3043   14.8395 O   0  0  0  0  0  0  0  0  0  0  0  0
    1.0118  -25.5322   16.8800 C   0  0  0  0  0  0  0  0  0  0  0  0
    0.7536  -25.1630   18.2717 C   0  0  0  0  0  0  0  0  0  0  0  0
    0.0749  -25.9829   19.1033 C   0  0  0  0  0  0  0  0  0  0  0  0
   -0.4921  -27.1669   18.6465 N   0  0  0  0  0  0  0  0  0  0  0  0
   -1.2319  -28.0632   19.3504 N   0  0  0  0  0  0  0  0  0  0  0  0
   -1.6080  -28.9780   18.4566 C   0  0  0  0  0  0  0  0  0  0  0  0
   -1.1044  -28.7044   17.1719 C   0  0  0  0  0  0  0  0  0  0  0  0
   -0.3755  -27.5387   17.3102 C   0  0  0  0  0  0  0  0  0  0  0  0
    0.4266  -26.6952   16.4432 C   0  0  0  0  0  0  0  0  0  0  0  0
    2.4357  -21.1858   12.3736 H   0  0  0  0  0  0  0  0  0  0  0  0
    1.0609  -20.0652   12.4120 H   0  0  0  0  0  0  0  0  0  0  0  0
    2.7138  -19.4416   12.2907 H   0  0  0  0  0  0  0  0  0  0  0  0
    1.8214  -19.1868   14.6338 H   0  0  0  0  0  0  0  0  0  0  0  0
    1.5523  -20.9425   14.7111 H   0  0  0  0  0  0  0  0  0  0  0  0
    4.3160  -18.4158   14.2939 H   0  0  0  0  0  0  0  0  0  0  0  0
    6.1180  -21.8013   15.9544 H   0  0  0  0  0  0  0  0  0  0  0  0
    4.2131  -23.6747   15.1203 H   0  0  0  0  0  0  0  0  0  0  0  0
    2.8423  -22.9932   14.2147 H   0  0  0  0  0  0  0  0  0  0  0  0
    1.1263  -24.2124   18.6219 H   0  0  0  0  0  0  0  0  0  0  0  0
   -0.1001  -25.7516   20.1444 H   0  0  0  0  0  0  0  0  0  0  0  0
   -2.2240  -29.8079   18.7791 H   0  0  0  0  0  0  0  0  0  0  0  0
   -1.2410  -29.2815   16.2687 H   0  0  0  0  0  0  0  0  0  0  0  0
    0.5866  -27.0382   15.4238 H   0  0  0  0  0  0  0  0  0  0  0  0
  1  2  1  0
  2  3  1  0
  3  4  1  0
  4  5  2  0
  5  6  1  0
  6  7  2  0
  7  8  1  0
  8  9  1  0
  9 10  1  0
 10 11  2  0
 10 12  1  0
 12 13  1  0
 13 14  2  0
 14 15  1  0
 15 16  1  0
 16 17  2  0
 17 18  1  0
 18 19  2  0
 19 20  1  0
  7  3  1  0
 20 12  2  0
 19 15  1  0
  1 21  1  0
  1 22  1  0
  1 23  1  0
  2 24  1  0
  2 25  1  0
  4 26  1  0
  6 27  1  0
  8 28  1  0
  8 29  1  0
 13 30  1  0
 14 31  1  0
 17 32  1  0
 18 33  1  0
 20 34  1  0
M  END
>  <Energy>  (506) 
48.009792602105399

>  <compound_id>  (506) 
46498

>  <target_id>  (506) 
1

>  <reference_id>  (506) 
80

>  <inspiration_ids>  (506) 
[80, 68]

>  <energy_score>  (506) 
-8.375491285803946

>  <distance_score>  (506) 
16.916000620592143

>  <path>  (506) 
/opt/xchem-fragalysis-2/maxwin/BulkDock/SCRATCH/511023/C46498-P80/C46498-P80.minimised.mol

>  <scratch_subdir>  (506) 
/opt/xchem-fragalysis-2/maxwin/BulkDock/SCRATCH/511023/C46498-P80

>  <fragmenstein_runtime>  (506) 
8.745276689529419

>  <fragmenstein_outcome>  (506) 
too moved

>  <fragmenstein_mode>  (506) 
expansion

>  <fragmenstein_error>  (506) 


$$$$
C46498-P68
     RDKit          3D

 34 36  0  0  0  0  0  0  0  0999 V2000
    2.5625  -20.2836   13.8727 C   0  0  0  0  0  0  0  0  0  0  0  0
    2.7419  -20.3970   15.3800 C   0  0  0  0  0  0  0  0  0  0  0  0
    4.1324  -20.6195   15.7248 N   0  0  0  0  0  0  0  0  0  0  0  0
    5.0968  -19.6356   15.6691 C   0  0  0  0  0  0  0  0  0  0  0  0
    6.2960  -20.1287   15.8726 N   0  0  0  0  0  0  0  0  0  0  0  0
    6.0815  -21.4869   16.0281 C   0  0  0  0  0  0  0  0  0  0  0  0
    4.7307  -21.8431   15.9966 C   0  0  0  0  0  0  0  0  0  0  0  0
    4.0824  -23.2617   15.8835 C   0  0  0  0  0  0  0  0  0  0  0  0
    3.3000  -23.8217   17.0244 O   0  0  0  0  0  0  0  0  0  0  0  0
    3.0272  -25.1908   16.8629 C   0  0  0  0  0  0  0  0  0  0  0  0
    3.4971  -25.8172   15.9081 O   0  0  0  0  0  0  0  0  0  0  0  0
    2.0894  -25.9543   17.8430 C   0  0  0  0  0  0  0  0  0  0  0  0
    1.3592  -25.3481   18.9601 C   0  0  0  0  0  0  0  0  0  0  0  0
    0.5964  -26.1020   19.7812 C   0  0  0  0  0  0  0  0  0  0  0  0
    0.3981  -27.4587   19.5514 N   0  0  0  0  0  0  0  0  0  0  0  0
   -0.3537  -28.3282   20.2802 N   0  0  0  0  0  0  0  0  0  0  0  0
   -0.3250  -29.4678   19.5884 C   0  0  0  0  0  0  0  0  0  0  0  0
    0.4859  -29.3742   18.4424 C   0  0  0  0  0  0  0  0  0  0  0  0
    0.9680  -28.0794   18.4456 C   0  0  0  0  0  0  0  0  0  0  0  0
    1.8511  -27.2876   17.6117 C   0  0  0  0  0  0  0  0  0  0  0  0
    3.1748  -19.4756   13.4580 H   0  0  0  0  0  0  0  0  0  0  0  0
    2.8576  -21.2122   13.3725 H   0  0  0  0  0  0  0  0  0  0  0  0
    1.5222  -20.0739   13.6129 H   0  0  0  0  0  0  0  0  0  0  0  0
    2.1571  -21.2260   15.7890 H   0  0  0  0  0  0  0  0  0  0  0  0
    2.4377  -19.4770   15.8852 H   0  0  0  0  0  0  0  0  0  0  0  0
    4.8540  -18.6004   15.4687 H   0  0  0  0  0  0  0  0  0  0  0  0
    6.9187  -22.1666   16.1309 H   0  0  0  0  0  0  0  0  0  0  0  0
    4.9145  -23.9482   15.6796 H   0  0  0  0  0  0  0  0  0  0  0  0
    3.4153  -23.2582   15.0129 H   0  0  0  0  0  0  0  0  0  0  0  0
    1.4554  -24.2772   19.1132 H   0  0  0  0  0  0  0  0  0  0  0  0
    0.0755  -25.6978   20.6335 H   0  0  0  0  0  0  0  0  0  0  0  0
   -0.8806  -30.3225   19.9531 H   0  0  0  0  0  0  0  0  0  0  0  0
    0.7012  -30.1462   17.7176 H   0  0  0  0  0  0  0  0  0  0  0  0
    2.3307  -27.7918   16.7760 H   0  0  0  0  0  0  0  0  0  0  0  0
  1  2  1  0
  2  3  1  0
  3  4  1  0
  4  5  2  0
  5  6  1  0
  6  7  2  0
  7  8  1  0
  8  9  1  0
  9 10  1  0
 10 11  2  0
 10 12  1  0
 12 13  1  0
 13 14  2  0
 14 15  1  0
 15 16  1  0
 16 17  2  0
 17 18  1  0
 18 19  2  0
 19 20  1  0
  7  3  1  0
 20 12  2  0
 19 15  1  0
  1 21  1  0
  1 22  1  0
  1 23  1  0
  2 24  1  0
  2 25  1  0
  4 26  1  0
  6 27  1  0
  8 28  1  0
  8 29  1  0
 13 30  1  0
 14 31  1  0
 17 32  1  0
 18 33  1  0
 20 34  1  0
M  END
>  <Energy>  (507) 
46.625686244921518

>  <compound_id>  (507) 
46498

>  <target_id>  (507) 
1

>  <reference_id>  (507) 
68

>  <inspiration_ids>  (507) 
[80, 68]

>  <energy_score>  (507) 
-9.759597642987217

>  <distance_score>  (507) 
16.963039435223525

>  <path>  (507) 
/opt/xchem-fragalysis-2/maxwin/BulkDock/SCRATCH/511023/C46498-P68/C46498-P68.minimised.mol

>  <scratch_subdir>  (507) 
/opt/xchem-fragalysis-2/maxwin/BulkDock/SCRATCH/511023/C46498-P68

>  <fragmenstein_runtime>  (507) 
9.921920537948608

>  <fragmenstein_outcome>  (507) 
too moved

>  <fragmenstein_mode>  (507) 
expansion

>  <fragmenstein_error>  (507) 


$$$$
C46499-P80
     RDKit          3D

 31 33  0  0  0  0  0  0  0  0999 V2000
   -1.2087  -17.9899   20.8154 O   0  0  0  0  0  0  0  0  0  0  0  0
   -1.8007  -17.3464   19.9534 C   0  0  0  0  0  0  0  0  0  0  0  0
   -1.1096  -16.0712   19.7023 O   0  0  0  0  0  0  0  0  0  0  0  0
    0.7708  -16.1103   19.6962 C   0  0  0  0  0  0  0  0  0  0  0  0
    2.3410  -15.0854   18.7805 C   0  0  0  0  0  0  0  0  0  0  0  0
    2.3049  -13.9704   18.0923 N   0  0  0  0  0  0  0  0  0  0  0  0
    3.6082  -13.0622   18.2666 C   0  0  0  0  0  0  0  0  0  0  0  0
    4.6082  -13.7993   18.1948 N   0  0  0  0  0  0  0  0  0  0  0  0
    4.0252  -15.0730   18.3089 C   0  0  0  0  0  0  0  0  0  0  0  0
    5.5886  -15.7604   18.4584 C   0  0  0  0  0  0  0  0  0  0  0  0
    5.8329  -16.7173   19.3953 F   0  0  0  0  0  0  0  0  0  0  0  0
    6.5453  -14.8054   18.7794 F   0  0  0  0  0  0  0  0  0  0  0  0
    6.0501  -16.2221   17.2459 F   0  0  0  0  0  0  0  0  0  0  0  0
   -3.2831  -18.0897   19.3699 C   0  0  0  0  0  0  0  0  0  0  0  0
   -4.3668  -17.4658   18.6454 C   0  0  0  0  0  0  0  0  0  0  0  0
   -5.6781  -17.7384   18.9217 C   0  0  0  0  0  0  0  0  0  0  0  0
   -6.1175  -18.7764   19.6801 N   0  0  0  0  0  0  0  0  0  0  0  0
   -7.3845  -19.1212   19.9938 N   0  0  0  0  0  0  0  0  0  0  0  0
   -7.2576  -20.1465   20.8329 C   0  0  0  0  0  0  0  0  0  0  0  0
   -5.9090  -20.4770   21.0136 C   0  0  0  0  0  0  0  0  0  0  0  0
   -5.1876  -19.6448   20.1440 C   0  0  0  0  0  0  0  0  0  0  0  0
   -3.7548  -19.3577   19.7435 C   0  0  0  0  0  0  0  0  0  0  0  0
    0.7489  -17.1554   19.3763 H   0  0  0  0  0  0  0  0  0  0  0  0
    0.8410  -15.9821   20.7483 H   0  0  0  0  0  0  0  0  0  0  0  0
    1.9700  -14.0079   17.1402 H   0  0  0  0  0  0  0  0  0  0  0  0
    3.5461  -11.9914   18.0848 H   0  0  0  0  0  0  0  0  0  0  0  0
   -4.1352  -16.7006   17.9191 H   0  0  0  0  0  0  0  0  0  0  0  0
   -6.5025  -17.1144   18.5863 H   0  0  0  0  0  0  0  0  0  0  0  0
   -8.1416  -20.5856   21.2788 H   0  0  0  0  0  0  0  0  0  0  0  0
   -5.5388  -21.2498   21.6633 H   0  0  0  0  0  0  0  0  0  0  0  0
   -3.1138  -20.0696   20.2209 H   0  0  0  0  0  0  0  0  0  0  0  0
  1  2  2  0
  2  3  1  0
  3  4  1  0
  4  5  1  0
  5  6  1  0
  6  7  1  0
  7  8  2  0
  8  9  1  0
  9 10  1  0
 10 11  1  0
 10 12  1  0
 10 13  1  0
  2 14  1  0
 14 15  1  0
 15 16  2  0
 16 17  1  0
 17 18  1  0
 18 19  2  0
 19 20  1  0
 20 21  2  0
 21 22  1  0
  9  5  2  0
 22 14  2  0
 21 17  1  0
  4 23  1  0
  4 24  1  0
  6 25  1  0
  7 26  1  0
 15 27  1  0
 16 28  1  0
 19 29  1  0
 20 30  1  0
 22 31  1  0
M  END
>  <Energy>  (508) 
522.13132127594224

>  <compound_id>  (508) 
46499

>  <target_id>  (508) 
1

>  <reference_id>  (508) 
80

>  <inspiration_ids>  (508) 
[80, 68]

>  <energy_score>  (508) 
402.76666000938667

>  <distance_score>  (508) 
17.144021888150114

>  <path>  (508) 
/opt/xchem-fragalysis-2/maxwin/BulkDock/SCRATCH/511023/C46499-P80/C46499-P80.minimised.mol

>  <scratch_subdir>  (508) 
/opt/xchem-fragalysis-2/maxwin/BulkDock/SCRATCH/511023/C46499-P80

>  <fragmenstein_runtime>  (508) 
11.371663570404053

>  <fragmenstein_outcome>  (508) 
too moved

>  <fragmenstein_mode>  (508) 
expansion

>  <fragmenstein_error>  (508) 


$$$$
C46499-P68
     RDKit          3D

 31 33  0  0  0  0  0  0  0  0999 V2000
    1.7532  -20.0179   17.7745 O   0  0  0  0  0  0  0  0  0  0  0  0
    2.5097  -20.8916   17.3562 C   0  0  0  0  0  0  0  0  0  0  0  0
    3.5696  -20.6258   16.5039 O   0  0  0  0  0  0  0  0  0  0  0  0
    3.5114  -19.4401   15.5877 C   0  0  0  0  0  0  0  0  0  0  0  0
    4.2197  -18.1479   16.0420 C   0  0  0  0  0  0  0  0  0  0  0  0
    3.4974  -17.1746   16.7111 N   0  0  0  0  0  0  0  0  0  0  0  0
    4.3347  -16.1804   17.1178 C   0  0  0  0  0  0  0  0  0  0  0  0
    5.5236  -16.3298   16.5868 N   0  0  0  0  0  0  0  0  0  0  0  0
    5.4602  -17.5068   15.8324 C   0  0  0  0  0  0  0  0  0  0  0  0
    6.6653  -17.8838   15.0238 C   0  0  0  0  0  0  0  0  0  0  0  0
    7.2398  -16.8156   14.4084 F   0  0  0  0  0  0  0  0  0  0  0  0
    7.6250  -18.4634   15.7975 F   0  0  0  0  0  0  0  0  0  0  0  0
    6.3681  -18.7835   14.0485 F   0  0  0  0  0  0  0  0  0  0  0  0
    2.3099  -22.3948   17.7454 C   0  0  0  0  0  0  0  0  0  0  0  0
    2.2347  -23.4529   16.7209 C   0  0  0  0  0  0  0  0  0  0  0  0
    1.7930  -24.6962   17.0173 C   0  0  0  0  0  0  0  0  0  0  0  0
    1.5022  -25.0511   18.3321 N   0  0  0  0  0  0  0  0  0  0  0  0
    1.0786  -26.2523   18.8034 N   0  0  0  0  0  0  0  0  0  0  0  0
    1.1697  -26.1566   20.1302 C   0  0  0  0  0  0  0  0  0  0  0  0
    1.5816  -24.8737   20.5387 C   0  0  0  0  0  0  0  0  0  0  0  0
    1.6959  -24.1422   19.3714 C   0  0  0  0  0  0  0  0  0  0  0  0
    2.0119  -22.7671   19.0268 C   0  0  0  0  0  0  0  0  0  0  0  0
    3.9853  -19.7772   14.6594 H   0  0  0  0  0  0  0  0  0  0  0  0
    2.4623  -19.2402   15.3516 H   0  0  0  0  0  0  0  0  0  0  0  0
    2.5141  -17.2490   16.9258 H   0  0  0  0  0  0  0  0  0  0  0  0
    4.0153  -15.3818   17.7776 H   0  0  0  0  0  0  0  0  0  0  0  0
    2.5299  -23.1876   15.7109 H   0  0  0  0  0  0  0  0  0  0  0  0
    1.6893  -25.4832   16.2819 H   0  0  0  0  0  0  0  0  0  0  0  0
    0.9399  -27.0223   20.7390 H   0  0  0  0  0  0  0  0  0  0  0  0
    1.7564  -24.5069   21.5412 H   0  0  0  0  0  0  0  0  0  0  0  0
    2.0156  -22.0243   19.8230 H   0  0  0  0  0  0  0  0  0  0  0  0
  1  2  2  0
  2  3  1  0
  3  4  1  0
  4  5  1  0
  5  6  1  0
  6  7  1  0
  7  8  2  0
  8  9  1  0
  9 10  1  0
 10 11  1  0
 10 12  1  0
 10 13  1  0
  2 14  1  0
 14 15  1  0
 15 16  2  0
 16 17  1  0
 17 18  1  0
 18 19  2  0
 19 20  1  0
 20 21  2  0
 21 22  1  0
  9  5  2  0
 22 14  2  0
 21 17  1  0
  4 23  1  0
  4 24  1  0
  6 25  1  0
  7 26  1  0
 15 27  1  0
 16 28  1  0
 19 29  1  0
 20 30  1  0
 22 31  1  0
M  END
>  <Energy>  (509) 
111.13068268948138

>  <compound_id>  (509) 
46499

>  <target_id>  (509) 
1

>  <reference_id>  (509) 
68

>  <inspiration_ids>  (509) 
[80, 68]

>  <energy_score>  (509) 
-8.233978577067546

>  <distance_score>  (509) 
16.800248513025544

>  <path>  (509) 
/opt/xchem-fragalysis-2/maxwin/BulkDock/SCRATCH/511023/C46499-P68/C46499-P68.minimised.mol

>  <scratch_subdir>  (509) 
/opt/xchem-fragalysis-2/maxwin/BulkDock/SCRATCH/511023/C46499-P68

>  <fragmenstein_runtime>  (509) 
10.245074272155762

>  <fragmenstein_outcome>  (509) 
too moved

>  <fragmenstein_mode>  (509) 
expansion

>  <fragmenstein_error>  (509) 


$$$$
C46500-P80
     RDKit          3D

 40 42  0  0  0  0  0  0  0  0999 V2000
   -0.1426  -20.4331   11.7369 C   0  0  0  0  0  0  0  0  0  0  0  0
   -1.3647  -21.3409   11.3552 C   0  0  0  0  0  0  0  0  0  0  0  0
   -2.2995  -21.7934   12.4284 O   0  0  0  0  0  0  0  0  0  0  0  0
   -3.1011  -23.0663   12.1318 C   0  0  0  0  0  0  0  0  0  0  0  0
   -4.1696  -22.7499   11.0950 C   0  0  0  0  0  0  0  0  0  0  0  0
   -3.6331  -24.1459   13.3994 C   0  0  0  0  0  0  0  0  0  0  0  0
   -5.0053  -24.3381   13.9402 N   0  0  0  0  0  0  0  0  0  0  0  0
   -6.0017  -23.4244   13.6771 C   0  0  0  0  0  0  0  0  0  0  0  0
   -7.1066  -23.8146   14.3786 C   0  0  0  0  0  0  0  0  0  0  0  0
   -6.8421  -24.9317   15.1004 N   0  0  0  0  0  0  0  0  0  0  0  0
   -5.5812  -25.2944   14.8602 C   0  0  0  0  0  0  0  0  0  0  0  0
   -5.1283  -26.5631   15.5518 C   0  0  0  0  0  0  0  0  0  0  0  0
   -4.5227  -27.6391   14.9106 C   0  0  0  0  0  0  0  0  0  0  0  0
   -4.3988  -28.9054   15.5542 C   0  0  0  0  0  0  0  0  0  0  0  0
   -4.8623  -29.1710   16.8443 C   0  0  0  0  0  0  0  0  0  0  0  0
   -4.7398  -30.4085   17.3836 N   0  0  0  0  0  0  0  0  0  0  0  0
   -5.2107  -30.6108   18.6358 C   0  0  0  0  0  0  0  0  0  0  0  0
   -5.7936  -29.6163   19.3922 C   0  0  0  0  0  0  0  0  0  0  0  0
   -5.9257  -28.3477   18.8253 C   0  0  0  0  0  0  0  0  0  0  0  0
   -5.4609  -28.0986   17.5235 C   0  0  0  0  0  0  0  0  0  0  0  0
   -5.5915  -26.8298   16.8745 C   0  0  0  0  0  0  0  0  0  0  0  0
   -0.2502  -19.9367   12.6976 H   0  0  0  0  0  0  0  0  0  0  0  0
    0.7596  -21.0535   11.7926 H   0  0  0  0  0  0  0  0  0  0  0  0
    0.0442  -19.7017   10.9442 H   0  0  0  0  0  0  0  0  0  0  0  0
   -0.9557  -22.2407   10.8808 H   0  0  0  0  0  0  0  0  0  0  0  0
   -1.9765  -20.8424   10.5969 H   0  0  0  0  0  0  0  0  0  0  0  0
   -2.3611  -23.7082   11.6332 H   0  0  0  0  0  0  0  0  0  0  0  0
   -4.8335  -23.6015   10.9238 H   0  0  0  0  0  0  0  0  0  0  0  0
   -4.7512  -21.8692   11.3807 H   0  0  0  0  0  0  0  0  0  0  0  0
   -3.7036  -22.4976   10.1360 H   0  0  0  0  0  0  0  0  0  0  0  0
   -3.3968  -25.1433   13.0043 H   0  0  0  0  0  0  0  0  0  0  0  0
   -3.0247  -23.9903   14.2862 H   0  0  0  0  0  0  0  0  0  0  0  0
   -5.8554  -22.5588   13.0543 H   0  0  0  0  0  0  0  0  0  0  0  0
   -8.0744  -23.3322   14.4180 H   0  0  0  0  0  0  0  0  0  0  0  0
   -4.1955  -27.5492   13.8781 H   0  0  0  0  0  0  0  0  0  0  0  0
   -3.9395  -29.7248   15.0028 H   0  0  0  0  0  0  0  0  0  0  0  0
   -5.1048  -31.6199   19.0224 H   0  0  0  0  0  0  0  0  0  0  0  0
   -6.1695  -29.8249   20.3892 H   0  0  0  0  0  0  0  0  0  0  0  0
   -6.4072  -27.5617   19.4022 H   0  0  0  0  0  0  0  0  0  0  0  0
   -6.1182  -26.0312   17.4009 H   0  0  0  0  0  0  0  0  0  0  0  0
  1  2  1  0
  2  3  1  0
  3  4  1  0
  4  5  1  0
  4  6  1  0
  6  7  1  0
  7  8  1  0
  8  9  2  0
  9 10  1  0
 10 11  2  0
 11 12  1  0
 12 13  2  0
 13 14  1  0
 14 15  2  0
 15 16  1  0
 16 17  2  0
 17 18  1  0
 18 19  2  0
 19 20  1  0
 20 21  2  0
 11  7  1  0
 21 12  1  0
 20 15  1  0
  1 22  1  0
  1 23  1  0
  1 24  1  0
  2 25  1  0
  2 26  1  0
  4 27  1  0
  5 28  1  0
  5 29  1  0
  5 30  1  0
  6 31  1  0
  6 32  1  0
  8 33  1  0
  9 34  1  0
 13 35  1  0
 14 36  1  0
 17 37  1  0
 18 38  1  0
 19 39  1  0
 21 40  1  0
M  END
>  <Energy>  (510) 
111.44900830956713

>  <compound_id>  (510) 
46500

>  <target_id>  (510) 
1

>  <reference_id>  (510) 
80

>  <inspiration_ids>  (510) 
[80, 68]

>  <energy_score>  (510) 
34.463674803091635

>  <distance_score>  (510) 
15.572504008813198

>  <path>  (510) 
/opt/xchem-fragalysis-2/maxwin/BulkDock/SCRATCH/511023/C46500-P80/C46500-P80.minimised.mol

>  <scratch_subdir>  (510) 
/opt/xchem-fragalysis-2/maxwin/BulkDock/SCRATCH/511023/C46500-P80

>  <fragmenstein_runtime>  (510) 
16.141642570495605

>  <fragmenstein_outcome>  (510) 
too moved

>  <fragmenstein_mode>  (510) 
expansion

>  <fragmenstein_error>  (510) 


$$$$
C46500-P68
     RDKit          3D

 40 42  0  0  0  0  0  0  0  0999 V2000
   -2.3605  -15.7296   20.5310 C   0  0  0  0  0  0  0  0  0  0  0  0
   -3.5180  -16.7962   20.7435 C   0  0  0  0  0  0  0  0  0  0  0  0
   -5.2452  -17.2163   21.1569 O   0  0  0  0  0  0  0  0  0  0  0  0
   -5.8897  -18.6031   20.6973 C   0  0  0  0  0  0  0  0  0  0  0  0
   -6.4399  -18.4154   19.3130 C   0  0  0  0  0  0  0  0  0  0  0  0
   -7.1586  -19.1793   21.5593 C   0  0  0  0  0  0  0  0  0  0  0  0
   -7.1944  -20.4753   22.3799 N   0  0  0  0  0  0  0  0  0  0  0  0
   -7.6474  -20.2114   23.7027 C   0  0  0  0  0  0  0  0  0  0  0  0
   -8.9663  -20.6165   23.6576 C   0  0  0  0  0  0  0  0  0  0  0  0
   -9.1772  -21.4350   22.5740 N   0  0  0  0  0  0  0  0  0  0  0  0
   -7.9477  -21.6928   22.1217 C   0  0  0  0  0  0  0  0  0  0  0  0
   -7.4620  -23.1391   22.2305 C   0  0  0  0  0  0  0  0  0  0  0  0
   -6.8345  -23.8580   21.2152 C   0  0  0  0  0  0  0  0  0  0  0  0
   -6.4581  -25.2177   21.4046 C   0  0  0  0  0  0  0  0  0  0  0  0
   -6.6885  -25.9145   22.5926 C   0  0  0  0  0  0  0  0  0  0  0  0
   -6.2293  -27.1723   22.7712 N   0  0  0  0  0  0  0  0  0  0  0  0
   -6.4746  -27.7799   23.9550 C   0  0  0  0  0  0  0  0  0  0  0  0
   -7.1895  -27.2029   24.9819 C   0  0  0  0  0  0  0  0  0  0  0  0
   -7.6537  -25.9068   24.7967 C   0  0  0  0  0  0  0  0  0  0  0  0
   -7.3866  -25.2292   23.5982 C   0  0  0  0  0  0  0  0  0  0  0  0
   -7.7684  -23.8772   23.4023 C   0  0  0  0  0  0  0  0  0  0  0  0
   -2.0542  -15.6586   19.4864 H   0  0  0  0  0  0  0  0  0  0  0  0
   -2.3072  -14.7537   20.9791 H   0  0  0  0  0  0  0  0  0  0  0  0
   -1.4690  -16.1878   20.9648 H   0  0  0  0  0  0  0  0  0  0  0  0
   -3.8001  -16.9317   19.6926 H   0  0  0  0  0  0  0  0  0  0  0  0
   -2.8663  -17.4778   21.2389 H   0  0  0  0  0  0  0  0  0  0  0  0
   -5.1248  -19.3710   20.5826 H   0  0  0  0  0  0  0  0  0  0  0  0
   -7.2600  -17.6966   19.3021 H   0  0  0  0  0  0  0  0  0  0  0  0
   -5.6249  -18.0955   18.6712 H   0  0  0  0  0  0  0  0  0  0  0  0
   -6.8559  -19.3548   18.9476 H   0  0  0  0  0  0  0  0  0  0  0  0
   -7.4320  -18.3747   22.2547 H   0  0  0  0  0  0  0  0  0  0  0  0
   -8.0190  -19.3202   20.8903 H   0  0  0  0  0  0  0  0  0  0  0  0
   -7.1244  -19.5068   24.3356 H   0  0  0  0  0  0  0  0  0  0  0  0
   -9.7655  -20.3660   24.3424 H   0  0  0  0  0  0  0  0  0  0  0  0
   -6.6395  -23.3926   20.2541 H   0  0  0  0  0  0  0  0  0  0  0  0
   -5.9500  -25.7379   20.5946 H   0  0  0  0  0  0  0  0  0  0  0  0
   -6.0538  -28.7723   24.0658 H   0  0  0  0  0  0  0  0  0  0  0  0
   -7.3610  -27.7247   25.9147 H   0  0  0  0  0  0  0  0  0  0  0  0
   -8.2052  -25.4167   25.5949 H   0  0  0  0  0  0  0  0  0  0  0  0
   -8.3132  -23.3721   24.1996 H   0  0  0  0  0  0  0  0  0  0  0  0
  1  2  1  0
  2  3  1  0
  3  4  1  0
  4  5  1  0
  4  6  1  0
  6  7  1  0
  7  8  1  0
  8  9  2  0
  9 10  1  0
 10 11  2  0
 11 12  1  0
 12 13  2  0
 13 14  1  0
 14 15  2  0
 15 16  1  0
 16 17  2  0
 17 18  1  0
 18 19  2  0
 19 20  1  0
 20 21  2  0
 11  7  1  0
 21 12  1  0
 20 15  1  0
  1 22  1  0
  1 23  1  0
  1 24  1  0
  2 25  1  0
  2 26  1  0
  4 27  1  0
  5 28  1  0
  5 29  1  0
  5 30  1  0
  6 31  1  0
  6 32  1  0
  8 33  1  0
  9 34  1  0
 13 35  1  0
 14 36  1  0
 17 37  1  0
 18 38  1  0
 19 39  1  0
 21 40  1  0
M  END
>  <Energy>  (511) 
244.31042349686803

>  <compound_id>  (511) 
46500

>  <target_id>  (511) 
1

>  <reference_id>  (511) 
68

>  <inspiration_ids>  (511) 
[80, 68]

>  <energy_score>  (511) 
167.32508999040124

>  <distance_score>  (511) 
14.945670200506143

>  <path>  (511) 
/opt/xchem-fragalysis-2/maxwin/BulkDock/SCRATCH/511023/C46500-P68/C46500-P68.minimised.mol

>  <scratch_subdir>  (511) 
/opt/xchem-fragalysis-2/maxwin/BulkDock/SCRATCH/511023/C46500-P68

>  <fragmenstein_runtime>  (511) 
26.698976755142212

>  <fragmenstein_outcome>  (511) 
too moved

>  <fragmenstein_mode>  (511) 
expansion

>  <fragmenstein_error>  (511) 


$$$$
C46501-P80
     RDKit          3D

 37 39  0  0  0  0  0  0  0  0999 V2000
    5.7089  -20.5573   21.8734 C   0  0  0  0  0  0  0  0  0  0  0  0
    4.3481  -21.1159   21.7196 C   0  0  0  0  0  0  0  0  0  0  0  0
    4.0214  -22.2899   21.2054 N   0  0  0  0  0  0  0  0  0  0  0  0
    2.6605  -22.4863   21.4668 C   0  0  0  0  0  0  0  0  0  0  0  0
    1.9378  -23.7891   21.0709 C   0  0  0  0  0  0  0  0  0  0  0  0
    0.8640  -24.4110   22.0575 C   0  0  0  0  0  0  0  0  0  0  0  0
    0.7642  -24.0123   23.1938 O   0  0  0  0  0  0  0  0  0  0  0  0
    0.1410  -25.5008   21.3535 N   0  0  0  0  0  0  0  0  0  0  0  0
   -1.1363  -24.9412   20.6581 C   0  0  0  0  0  0  0  0  0  0  0  0
   -0.8792  -26.5362   21.8790 C   0  0  0  0  0  0  0  0  0  0  0  0
   -1.3770  -26.5101   23.1859 C   0  0  0  0  0  0  0  0  0  0  0  0
   -2.2370  -27.5325   23.6705 C   0  0  0  0  0  0  0  0  0  0  0  0
   -2.6104  -28.6420   22.9161 C   0  0  0  0  0  0  0  0  0  0  0  0
   -3.4317  -29.5807   23.4379 N   0  0  0  0  0  0  0  0  0  0  0  0
   -3.7678  -30.6418   22.6678 C   0  0  0  0  0  0  0  0  0  0  0  0
   -3.2989  -30.8231   21.3820 C   0  0  0  0  0  0  0  0  0  0  0  0
   -2.4401  -29.8554   20.8561 C   0  0  0  0  0  0  0  0  0  0  0  0
   -2.0790  -28.7284   21.6177 C   0  0  0  0  0  0  0  0  0  0  0  0
   -1.2073  -27.7006   21.1283 C   0  0  0  0  0  0  0  0  0  0  0  0
    2.1745  -21.3454   22.0641 C   0  0  0  0  0  0  0  0  0  0  0  0
    3.2312  -20.4838   22.1892 N   0  0  0  0  0  0  0  0  0  0  0  0
    6.3734  -20.9380   21.0923 H   0  0  0  0  0  0  0  0  0  0  0  0
    5.7080  -19.4644   21.8256 H   0  0  0  0  0  0  0  0  0  0  0  0
    6.1253  -20.8526   22.8417 H   0  0  0  0  0  0  0  0  0  0  0  0
    2.7013  -24.5622   20.9191 H   0  0  0  0  0  0  0  0  0  0  0  0
    1.4546  -23.6047   20.1047 H   0  0  0  0  0  0  0  0  0  0  0  0
   -0.7974  -24.0385   20.1302 H   0  0  0  0  0  0  0  0  0  0  0  0
   -1.5315  -25.5820   19.8586 H   0  0  0  0  0  0  0  0  0  0  0  0
   -1.8909  -24.5576   21.3625 H   0  0  0  0  0  0  0  0  0  0  0  0
   -1.1111  -25.6933   23.8541 H   0  0  0  0  0  0  0  0  0  0  0  0
   -2.6150  -27.4546   24.6885 H   0  0  0  0  0  0  0  0  0  0  0  0
   -4.4475  -31.3540   23.1272 H   0  0  0  0  0  0  0  0  0  0  0  0
   -3.5973  -31.6904   20.8045 H   0  0  0  0  0  0  0  0  0  0  0  0
   -2.0604  -29.9803   19.8454 H   0  0  0  0  0  0  0  0  0  0  0  0
   -0.7711  -27.8173   20.1367 H   0  0  0  0  0  0  0  0  0  0  0  0
    1.1966  -21.0910   22.4425 H   0  0  0  0  0  0  0  0  0  0  0  0
    3.1702  -19.5874   22.6496 H   0  0  0  0  0  0  0  0  0  0  0  0
  1  2  1  0
  2  3  2  0
  3  4  1  0
  4  5  1  0
  5  6  1  0
  6  7  2  0
  6  8  1  0
  8  9  1  0
  8 10  1  0
 10 11  2  0
 11 12  1  0
 12 13  2  0
 13 14  1  0
 14 15  2  0
 15 16  1  0
 16 17  2  0
 17 18  1  0
 18 19  2  0
  4 20  2  0
 20 21  1  0
 21  2  1  0
 19 10  1  0
 18 13  1  0
  1 22  1  0
  1 23  1  0
  1 24  1  0
  5 25  1  0
  5 26  1  0
  9 27  1  0
  9 28  1  0
  9 29  1  0
 11 30  1  0
 12 31  1  0
 15 32  1  0
 16 33  1  0
 17 34  1  0
 19 35  1  0
 20 36  1  0
 21 37  1  0
M  END
>  <Energy>  (512) 
124.37718749988457

>  <compound_id>  (512) 
46501

>  <target_id>  (512) 
1

>  <reference_id>  (512) 
80

>  <inspiration_ids>  (512) 
[80, 68]

>  <energy_score>  (512) 
46.22434330969776

>  <distance_score>  (512) 
16.139236396623712

>  <path>  (512) 
/opt/xchem-fragalysis-2/maxwin/BulkDock/SCRATCH/511023/C46501-P80/C46501-P80.minimised.mol

>  <scratch_subdir>  (512) 
/opt/xchem-fragalysis-2/maxwin/BulkDock/SCRATCH/511023/C46501-P80

>  <fragmenstein_runtime>  (512) 
11.847975254058838

>  <fragmenstein_outcome>  (512) 
too moved

>  <fragmenstein_mode>  (512) 
expansion

>  <fragmenstein_error>  (512) 


$$$$
C46501-P68
     RDKit          3D

 37 39  0  0  0  0  0  0  0  0999 V2000
    4.9423  -19.1171   15.1324 C   0  0  0  0  0  0  0  0  0  0  0  0
    3.9140  -19.8274   15.9217 C   0  0  0  0  0  0  0  0  0  0  0  0
    3.9715  -21.0592   16.4028 N   0  0  0  0  0  0  0  0  0  0  0  0
    2.7354  -21.3229   17.0201 C   0  0  0  0  0  0  0  0  0  0  0  0
    2.4518  -22.6364   17.7852 C   0  0  0  0  0  0  0  0  0  0  0  0
    1.1005  -23.4510   17.5623 C   0  0  0  0  0  0  0  0  0  0  0  0
    0.2980  -23.1273   16.7204 O   0  0  0  0  0  0  0  0  0  0  0  0
    1.0906  -24.5968   18.5147 N   0  0  0  0  0  0  0  0  0  0  0  0
    1.8029  -25.8327   17.8830 C   0  0  0  0  0  0  0  0  0  0  0  0
    0.0014  -25.6638   18.8020 C   0  0  0  0  0  0  0  0  0  0  0  0
    0.0435  -26.3559   20.0363 C   0  0  0  0  0  0  0  0  0  0  0  0
   -0.8777  -27.3799   20.3675 C   0  0  0  0  0  0  0  0  0  0  0  0
   -1.9016  -27.7551   19.5135 C   0  0  0  0  0  0  0  0  0  0  0  0
   -2.7088  -28.7889   19.8407 N   0  0  0  0  0  0  0  0  0  0  0  0
   -3.6684  -29.1439   18.9596 C   0  0  0  0  0  0  0  0  0  0  0  0
   -3.8931  -28.4824   17.7706 C   0  0  0  0  0  0  0  0  0  0  0  0
   -3.0696  -27.3996   17.4535 C   0  0  0  0  0  0  0  0  0  0  0  0
   -2.0300  -27.0159   18.3159 C   0  0  0  0  0  0  0  0  0  0  0  0
   -1.1128  -25.9531   17.9929 C   0  0  0  0  0  0  0  0  0  0  0  0
    1.9711  -20.1822   16.9275 C   0  0  0  0  0  0  0  0  0  0  0  0
    2.7122  -19.2577   16.2337 N   0  0  0  0  0  0  0  0  0  0  0  0
    5.8898  -19.6640   15.1547 H   0  0  0  0  0  0  0  0  0  0  0  0
    5.1197  -18.1143   15.5337 H   0  0  0  0  0  0  0  0  0  0  0  0
    4.6260  -19.0224   14.0891 H   0  0  0  0  0  0  0  0  0  0  0  0
    2.4944  -22.3978   18.8551 H   0  0  0  0  0  0  0  0  0  0  0  0
    3.2838  -23.3141   17.5640 H   0  0  0  0  0  0  0  0  0  0  0  0
    1.3150  -26.1913   16.9640 H   0  0  0  0  0  0  0  0  0  0  0  0
    2.0767  -26.6200   18.5991 H   0  0  0  0  0  0  0  0  0  0  0  0
    2.7709  -25.4532   17.5295 H   0  0  0  0  0  0  0  0  0  0  0  0
    0.8315  -26.1189   20.7500 H   0  0  0  0  0  0  0  0  0  0  0  0
   -0.7661  -27.9074   21.3123 H   0  0  0  0  0  0  0  0  0  0  0  0
   -4.2760  -29.9953   19.2426 H   0  0  0  0  0  0  0  0  0  0  0  0
   -4.6837  -28.7977   17.0993 H   0  0  0  0  0  0  0  0  0  0  0  0
   -3.2264  -26.8709   16.5159 H   0  0  0  0  0  0  0  0  0  0  0  0
   -1.2438  -25.3984   17.0642 H   0  0  0  0  0  0  0  0  0  0  0  0
    0.9667  -19.9808   17.2668 H   0  0  0  0  0  0  0  0  0  0  0  0
    2.3706  -18.3516   15.9353 H   0  0  0  0  0  0  0  0  0  0  0  0
  1  2  1  0
  2  3  2  0
  3  4  1  0
  4  5  1  0
  5  6  1  0
  6  7  2  0
  6  8  1  0
  8  9  1  0
  8 10  1  0
 10 11  2  0
 11 12  1  0
 12 13  2  0
 13 14  1  0
 14 15  2  0
 15 16  1  0
 16 17  2  0
 17 18  1  0
 18 19  2  0
  4 20  2  0
 20 21  1  0
 21  2  1  0
 19 10  1  0
 18 13  1  0
  1 22  1  0
  1 23  1  0
  1 24  1  0
  5 25  1  0
  5 26  1  0
  9 27  1  0
  9 28  1  0
  9 29  1  0
 11 30  1  0
 12 31  1  0
 15 32  1  0
 16 33  1  0
 17 34  1  0
 19 35  1  0
 20 36  1  0
 21 37  1  0
M  END
>  <Energy>  (513) 
127.18383801618623

>  <compound_id>  (513) 
46501

>  <target_id>  (513) 
1

>  <reference_id>  (513) 
68

>  <inspiration_ids>  (513) 
[80, 68]

>  <energy_score>  (513) 
49.030993826002316

>  <distance_score>  (513) 
16.35144155367092

>  <path>  (513) 
/opt/xchem-fragalysis-2/maxwin/BulkDock/SCRATCH/511023/C46501-P68/C46501-P68.minimised.mol

>  <scratch_subdir>  (513) 
/opt/xchem-fragalysis-2/maxwin/BulkDock/SCRATCH/511023/C46501-P68

>  <fragmenstein_runtime>  (513) 
20.04415535926819

>  <fragmenstein_outcome>  (513) 
too moved

>  <fragmenstein_mode>  (513) 
expansion

>  <fragmenstein_error>  (513) 


$$$$
C46502-P80
     RDKit          3D

 37 39  0  0  0  0  0  0  0  0999 V2000
    8.3612  -20.9760   17.8733 C   0  0  0  0  0  0  0  0  0  0  0  0
    8.1263  -21.7068   19.1416 C   0  0  0  0  0  0  0  0  0  0  0  0
    7.1541  -22.5656   19.4181 N   0  0  0  0  0  0  0  0  0  0  0  0
    7.5089  -23.2323   20.5898 C   0  0  0  0  0  0  0  0  0  0  0  0
    6.6949  -24.4114   21.2807 C   0  0  0  0  0  0  0  0  0  0  0  0
    6.0301  -25.5768   20.4037 C   0  0  0  0  0  0  0  0  0  0  0  0
    6.5104  -25.7636   19.3168 O   0  0  0  0  0  0  0  0  0  0  0  0
    4.8752  -26.2516   21.0880 N   0  0  0  0  0  0  0  0  0  0  0  0
    4.0379  -27.4224   20.6681 C   0  0  0  0  0  0  0  0  0  0  0  0
    2.7348  -27.9599   21.3422 C   0  0  0  0  0  0  0  0  0  0  0  0
    1.9832  -27.3537   22.3442 C   0  0  0  0  0  0  0  0  0  0  0  0
    0.7898  -27.9628   22.8505 C   0  0  0  0  0  0  0  0  0  0  0  0
    0.2737  -29.1825   22.3977 C   0  0  0  0  0  0  0  0  0  0  0  0
   -0.8578  -29.7205   22.9230 N   0  0  0  0  0  0  0  0  0  0  0  0
   -1.3118  -30.8955   22.4241 C   0  0  0  0  0  0  0  0  0  0  0  0
   -0.6789  -31.5803   21.4074 C   0  0  0  0  0  0  0  0  0  0  0  0
    0.4899  -31.0264   20.8808 C   0  0  0  0  0  0  0  0  0  0  0  0
    0.9946  -29.8061   21.3718 C   0  0  0  0  0  0  0  0  0  0  0  0
    2.1920  -29.1948   20.8678 C   0  0  0  0  0  0  0  0  0  0  0  0
    8.6434  -22.5960   21.0897 C   0  0  0  0  0  0  0  0  0  0  0  0
    8.9932  -21.6148   20.1947 N   0  0  0  0  0  0  0  0  0  0  0  0
    9.3388  -21.2386   17.4562 H   0  0  0  0  0  0  0  0  0  0  0  0
    8.3364  -19.8946   18.0377 H   0  0  0  0  0  0  0  0  0  0  0  0
    7.6006  -21.2338   17.1302 H   0  0  0  0  0  0  0  0  0  0  0  0
    7.3944  -24.9222   21.9557 H   0  0  0  0  0  0  0  0  0  0  0  0
    5.9353  -23.9413   21.9060 H   0  0  0  0  0  0  0  0  0  0  0  0
    4.7964  -25.8992   22.0344 H   0  0  0  0  0  0  0  0  0  0  0  0
    4.7487  -28.2585   20.6598 H   0  0  0  0  0  0  0  0  0  0  0  0
    3.7882  -27.2200   19.6189 H   0  0  0  0  0  0  0  0  0  0  0  0
    2.2912  -26.3994   22.7675 H   0  0  0  0  0  0  0  0  0  0  0  0
    0.2458  -27.4452   23.6403 H   0  0  0  0  0  0  0  0  0  0  0  0
   -2.2246  -31.2730   22.8779 H   0  0  0  0  0  0  0  0  0  0  0  0
   -1.0782  -32.5164   21.0352 H   0  0  0  0  0  0  0  0  0  0  0  0
    1.0076  -31.5497   20.0808 H   0  0  0  0  0  0  0  0  0  0  0  0
    2.7237  -29.7097   20.0649 H   0  0  0  0  0  0  0  0  0  0  0  0
    9.2232  -22.7724   21.9846 H   0  0  0  0  0  0  0  0  0  0  0  0
    9.8168  -21.0307   20.2384 H   0  0  0  0  0  0  0  0  0  0  0  0
  1  2  1  0
  2  3  2  0
  3  4  1  0
  4  5  1  0
  5  6  1  0
  6  7  2  0
  6  8  1  0
  8  9  1  0
  9 10  1  0
 10 11  2  0
 11 12  1  0
 12 13  2  0
 13 14  1  0
 14 15  2  0
 15 16  1  0
 16 17  2  0
 17 18  1  0
 18 19  2  0
  4 20  2  0
 20 21  1  0
 21  2  1  0
 19 10  1  0
 18 13  1  0
  1 22  1  0
  1 23  1  0
  1 24  1  0
  5 25  1  0
  5 26  1  0
  8 27  1  0
  9 28  1  0
  9 29  1  0
 11 30  1  0
 12 31  1  0
 15 32  1  0
 16 33  1  0
 17 34  1  0
 19 35  1  0
 20 36  1  0
 21 37  1  0
M  END
>  <Energy>  (514) 
71.401117833342354

>  <compound_id>  (514) 
46502

>  <target_id>  (514) 
1

>  <reference_id>  (514) 
80

>  <inspiration_ids>  (514) 
[80, 68]

>  <energy_score>  (514) 
14.491687496366694

>  <distance_score>  (514) 
16.82311882461187

>  <path>  (514) 
/opt/xchem-fragalysis-2/maxwin/BulkDock/SCRATCH/511023/C46502-P80/C46502-P80.minimised.mol

>  <scratch_subdir>  (514) 
/opt/xchem-fragalysis-2/maxwin/BulkDock/SCRATCH/511023/C46502-P80

>  <fragmenstein_runtime>  (514) 
7.7266480922698975

>  <fragmenstein_outcome>  (514) 
too moved

>  <fragmenstein_mode>  (514) 
expansion

>  <fragmenstein_error>  (514) 


$$$$
C46502-P68
     RDKit          3D

 37 39  0  0  0  0  0  0  0  0999 V2000
    7.6923  -13.0869   20.3980 C   0  0  0  0  0  0  0  0  0  0  0  0
    7.7617  -14.5362   20.1061 C   0  0  0  0  0  0  0  0  0  0  0  0
    7.8209  -15.5259   20.9793 N   0  0  0  0  0  0  0  0  0  0  0  0
    7.8141  -16.7231   20.2529 C   0  0  0  0  0  0  0  0  0  0  0  0
    8.0315  -18.0543   20.9766 C   0  0  0  0  0  0  0  0  0  0  0  0
    7.0498  -19.2968   21.0441 C   0  0  0  0  0  0  0  0  0  0  0  0
    7.5716  -20.3869   20.9815 O   0  0  0  0  0  0  0  0  0  0  0  0
    5.6385  -18.9161   21.2738 N   0  0  0  0  0  0  0  0  0  0  0  0
    4.0999  -19.9751   21.6888 C   0  0  0  0  0  0  0  0  0  0  0  0
    2.4324  -20.8406   20.9491 C   0  0  0  0  0  0  0  0  0  0  0  0
    2.4600  -22.0361   20.0384 C   0  0  0  0  0  0  0  0  0  0  0  0
    1.3922  -22.9745   19.7432 C   0  0  0  0  0  0  0  0  0  0  0  0
    0.1788  -22.9576   20.3955 C   0  0  0  0  0  0  0  0  0  0  0  0
   -0.6793  -24.0111   20.2711 N   0  0  0  0  0  0  0  0  0  0  0  0
   -1.7784  -24.0329   21.0478 C   0  0  0  0  0  0  0  0  0  0  0  0
   -2.0740  -23.0222   21.9365 C   0  0  0  0  0  0  0  0  0  0  0  0
   -1.1919  -21.9293   22.0226 C   0  0  0  0  0  0  0  0  0  0  0  0
   -0.0168  -21.8496   21.2430 C   0  0  0  0  0  0  0  0  0  0  0  0
    1.0435  -20.7731   21.4139 C   0  0  0  0  0  0  0  0  0  0  0  0
    7.8136  -16.4013   18.9074 C   0  0  0  0  0  0  0  0  0  0  0  0
    7.7459  -15.0297   18.8279 N   0  0  0  0  0  0  0  0  0  0  0  0
    6.7520  -12.6651   20.0298 H   0  0  0  0  0  0  0  0  0  0  0  0
    7.7464  -12.9088   21.4764 H   0  0  0  0  0  0  0  0  0  0  0  0
    8.5232  -12.5566   19.9228 H   0  0  0  0  0  0  0  0  0  0  0  0
    8.9727  -18.4514   20.5686 H   0  0  0  0  0  0  0  0  0  0  0  0
    8.2439  -17.8171   22.0287 H   0  0  0  0  0  0  0  0  0  0  0  0
    5.5518  -17.9435   21.1828 H   0  0  0  0  0  0  0  0  0  0  0  0
    3.9150  -19.6103   22.7595 H   0  0  0  0  0  0  0  0  0  0  0  0
    4.8014  -20.8509   21.6030 H   0  0  0  0  0  0  0  0  0  0  0  0
    3.3932  -22.3972   19.6160 H   0  0  0  0  0  0  0  0  0  0  0  0
    1.6217  -23.8123   19.0876 H   0  0  0  0  0  0  0  0  0  0  0  0
   -2.4224  -24.8976   20.9292 H   0  0  0  0  0  0  0  0  0  0  0  0
   -2.9637  -23.0632   22.5539 H   0  0  0  0  0  0  0  0  0  0  0  0
   -1.4007  -21.1375   22.7402 H   0  0  0  0  0  0  0  0  0  0  0  0
    0.6917  -20.0304   22.0897 H   0  0  0  0  0  0  0  0  0  0  0  0
    7.8663  -17.0109   18.0169 H   0  0  0  0  0  0  0  0  0  0  0  0
    7.6901  -14.4804   17.9810 H   0  0  0  0  0  0  0  0  0  0  0  0
  1  2  1  0
  2  3  2  0
  3  4  1  0
  4  5  1  0
  5  6  1  0
  6  7  2  0
  6  8  1  0
  8  9  1  0
  9 10  1  0
 10 11  2  0
 11 12  1  0
 12 13  2  0
 13 14  1  0
 14 15  2  0
 15 16  1  0
 16 17  2  0
 17 18  1  0
 18 19  2  0
  4 20  2  0
 20 21  1  0
 21  2  1  0
 19 10  1  0
 18 13  1  0
  1 22  1  0
  1 23  1  0
  1 24  1  0
  5 25  1  0
  5 26  1  0
  8 27  1  0
  9 28  1  0
  9 29  1  0
 11 30  1  0
 12 31  1  0
 15 32  1  0
 16 33  1  0
 17 34  1  0
 19 35  1  0
 20 36  1  0
 21 37  1  0
M  END
>  <Energy>  (515) 
244.208434349008

>  <compound_id>  (515) 
46502

>  <target_id>  (515) 
1

>  <reference_id>  (515) 
68

>  <inspiration_ids>  (515) 
[80, 68]

>  <energy_score>  (515) 
187.29900401204083

>  <distance_score>  (515) 
17.439058255486927

>  <path>  (515) 
/opt/xchem-fragalysis-2/maxwin/BulkDock/SCRATCH/511023/C46502-P68/C46502-P68.minimised.mol

>  <scratch_subdir>  (515) 
/opt/xchem-fragalysis-2/maxwin/BulkDock/SCRATCH/511023/C46502-P68

>  <fragmenstein_runtime>  (515) 
14.706655740737915

>  <fragmenstein_outcome>  (515) 
too moved

>  <fragmenstein_mode>  (515) 
expansion

>  <fragmenstein_error>  (515) 


$$$$
C46503-P80
     RDKit          3D

 49 53  0  0  0  0  0  0  0  0999 V2000
   -7.0909  -21.6720   21.4839 C   0  0  0  0  0  0  0  0  0  0  0  0
   -7.9466  -20.8155   20.8499 C   0  0  0  0  0  0  0  0  0  0  0  0
   -7.5447  -19.7316   20.1264 N   0  0  0  0  0  0  0  0  0  0  0  0
   -6.2114  -19.4514   19.9741 C   0  0  0  0  0  0  0  0  0  0  0  0
   -5.6780  -18.4353   19.1908 C   0  0  0  0  0  0  0  0  0  0  0  0
   -4.2442  -18.1710   18.8152 C   0  0  0  0  0  0  0  0  0  0  0  0
   -3.0714  -18.8549   19.2434 C   0  0  0  0  0  0  0  0  0  0  0  0
   -1.4593  -18.0471   18.7974 C   0  0  0  0  0  0  0  0  0  0  0  0
   -2.0040  -16.8447   18.9053 N   0  0  0  0  0  0  0  0  0  0  0  0
   -1.4161  -16.4086   20.0055 C   0  0  0  0  0  0  0  0  0  0  0  0
   -0.1409  -16.9465   20.2390 C   0  0  0  0  0  0  0  0  0  0  0  0
    0.3778  -17.7388   18.9698 N   0  0  0  0  0  0  0  0  0  0  0  0
    1.9235  -17.0912   17.9222 C   0  0  0  0  0  0  0  0  0  0  0  0
    3.3157  -15.7707   18.4927 C   0  0  0  0  0  0  0  0  0  0  0  0
    2.5467  -14.7334   19.3549 C   0  0  0  0  0  0  0  0  0  0  0  0
    2.3512  -13.8558   18.3631 O   0  0  0  0  0  0  0  0  0  0  0  0
    3.7552  -13.7655   17.9960 C   0  0  0  0  0  0  0  0  0  0  0  0
    3.9538  -11.9706   17.6609 C   0  0  0  0  0  0  0  0  0  0  0  0
    5.2846  -11.3126   17.3034 C   0  0  0  0  0  0  0  0  0  0  0  0
    6.2554  -11.5151   18.3006 O   0  0  0  0  0  0  0  0  0  0  0  0
    6.5042  -12.8881   18.4721 C   0  0  0  0  0  0  0  0  0  0  0  0
    5.2410  -13.7314   18.8134 C   0  0  0  0  0  0  0  0  0  0  0  0
    2.6217  -15.3058   17.1680 C   0  0  0  0  0  0  0  0  0  0  0  0
   -3.7112  -19.9425   20.0052 C   0  0  0  0  0  0  0  0  0  0  0  0
   -5.2256  -20.2369   20.4687 C   0  0  0  0  0  0  0  0  0  0  0  0
   -5.7511  -21.3712   21.3175 C   0  0  0  0  0  0  0  0  0  0  0  0
   -7.4351  -22.5140   22.0675 H   0  0  0  0  0  0  0  0  0  0  0  0
   -9.0231  -20.9486   20.9074 H   0  0  0  0  0  0  0  0  0  0  0  0
   -6.4328  -17.7488   18.8228 H   0  0  0  0  0  0  0  0  0  0  0  0
   -4.1268  -17.2991   18.1667 H   0  0  0  0  0  0  0  0  0  0  0  0
   -1.8895  -15.5384   20.4225 H   0  0  0  0  0  0  0  0  0  0  0  0
    0.5901  -16.5422   20.8545 H   0  0  0  0  0  0  0  0  0  0  0  0
    1.9541  -17.8078   17.0823 H   0  0  0  0  0  0  0  0  0  0  0  0
    4.1258  -16.2065   19.0605 H   0  0  0  0  0  0  0  0  0  0  0  0
    4.2802  -15.5497   17.8601 H   0  0  0  0  0  0  0  0  0  0  0  0
    2.8334  -14.1170   20.2216 H   0  0  0  0  0  0  0  0  0  0  0  0
    1.9093  -15.2076   20.0993 H   0  0  0  0  0  0  0  0  0  0  0  0
    3.6827  -11.4840   18.5863 H   0  0  0  0  0  0  0  0  0  0  0  0
    3.2986  -11.5581   16.8986 H   0  0  0  0  0  0  0  0  0  0  0  0
    5.6684  -11.5871   16.3176 H   0  0  0  0  0  0  0  0  0  0  0  0
    5.1238  -10.2286   17.2481 H   0  0  0  0  0  0  0  0  0  0  0  0
    7.0827  -13.2821   17.6303 H   0  0  0  0  0  0  0  0  0  0  0  0
    7.1906  -12.9704   19.3251 H   0  0  0  0  0  0  0  0  0  0  0  0
    5.6923  -14.7271   18.8801 H   0  0  0  0  0  0  0  0  0  0  0  0
    5.0062  -13.2734   19.7860 H   0  0  0  0  0  0  0  0  0  0  0  0
    1.7437  -14.7660   16.7184 H   0  0  0  0  0  0  0  0  0  0  0  0
    3.1409  -15.7484   16.3139 H   0  0  0  0  0  0  0  0  0  0  0  0
   -3.1344  -20.7334   20.4893 H   0  0  0  0  0  0  0  0  0  0  0  0
   -5.0110  -22.0339   21.7728 H   0  0  0  0  0  0  0  0  0  0  0  0
  1  2  2  0
  2  3  1  0
  3  4  2  0
  4  5  1  0
  5  6  2  0
  6  7  1  0
  7  8  1  0
  8  9  2  0
  9 10  1  0
 10 11  2  0
 11 12  1  0
 12 13  1  0
 13 14  1  0
 14 15  1  0
 15 16  1  0
 16 17  1  0
 17 18  1  0
 18 19  1  0
 19 20  1  0
 20 21  1  0
 21 22  1  0
 17 23  1  0
  7 24  2  0
 24 25  1  0
 25 26  2  0
 26  1  1  0
 25  4  1  0
 12  8  1  0
 23 13  1  0
 22 17  1  0
  1 27  1  0
  2 28  1  0
  5 29  1  0
  6 30  1  0
 10 31  1  0
 11 32  1  0
 13 33  1  0
 14 34  1  0
 14 35  1  0
 15 36  1  0
 15 37  1  0
 18 38  1  0
 18 39  1  0
 19 40  1  0
 19 41  1  0
 21 42  1  0
 21 43  1  0
 22 44  1  0
 22 45  1  0
 23 46  1  0
 23 47  1  0
 24 48  1  0
 26 49  1  0
M  END
>  <Energy>  (516) 
1053.2479197051607

>  <compound_id>  (516) 
46503

>  <target_id>  (516) 
1

>  <reference_id>  (516) 
80

>  <inspiration_ids>  (516) 
[80, 68]

>  <energy_score>  (516) 
951.6347688547713

>  <distance_score>  (516) 
16.835358742459647

>  <path>  (516) 
/opt/xchem-fragalysis-2/maxwin/BulkDock/SCRATCH/511023/C46503-P80/C46503-P80.minimised.mol

>  <scratch_subdir>  (516) 
/opt/xchem-fragalysis-2/maxwin/BulkDock/SCRATCH/511023/C46503-P80

>  <fragmenstein_runtime>  (516) 
37.929129123687744

>  <fragmenstein_outcome>  (516) 
too moved

>  <fragmenstein_mode>  (516) 
expansion

>  <fragmenstein_error>  (516) 


$$$$
C46503-P68
     RDKit          3D

 49 53  0  0  0  0  0  0  0  0999 V2000
   -4.7067  -29.9323   27.8347 C   0  0  0  0  0  0  0  0  0  0  0  0
   -3.6640  -30.8005   27.5815 C   0  0  0  0  0  0  0  0  0  0  0  0
   -2.8174  -30.6554   26.5453 N   0  0  0  0  0  0  0  0  0  0  0  0
   -3.0430  -29.6380   25.6916 C   0  0  0  0  0  0  0  0  0  0  0  0
   -2.1644  -29.4369   24.6445 C   0  0  0  0  0  0  0  0  0  0  0  0
   -2.4134  -28.4987   23.6324 C   0  0  0  0  0  0  0  0  0  0  0  0
   -3.5247  -27.6622   23.6779 C   0  0  0  0  0  0  0  0  0  0  0  0
   -3.9116  -26.8383   22.5151 C   0  0  0  0  0  0  0  0  0  0  0  0
   -5.1427  -26.9193   22.0269 N   0  0  0  0  0  0  0  0  0  0  0  0
   -5.1310  -26.2964   20.8180 C   0  0  0  0  0  0  0  0  0  0  0  0
   -3.8972  -25.7569   20.5697 C   0  0  0  0  0  0  0  0  0  0  0  0
   -3.1358  -25.9940   21.6972 N   0  0  0  0  0  0  0  0  0  0  0  0
   -1.8791  -25.2516   21.9920 C   0  0  0  0  0  0  0  0  0  0  0  0
   -0.6424  -26.1416   22.1774 C   0  0  0  0  0  0  0  0  0  0  0  0
    0.6748  -25.4227   21.8731 C   0  0  0  0  0  0  0  0  0  0  0  0
    0.6073  -24.0452   22.2324 O   0  0  0  0  0  0  0  0  0  0  0  0
   -0.2583  -23.2601   21.3873 C   0  0  0  0  0  0  0  0  0  0  0  0
   -0.7897  -22.1203   22.2642 C   0  0  0  0  0  0  0  0  0  0  0  0
    0.1933  -20.9975   22.4240 C   0  0  0  0  0  0  0  0  0  0  0  0
    0.5963  -20.5097   21.1475 O   0  0  0  0  0  0  0  0  0  0  0  0
    1.3977  -21.4856   20.4886 C   0  0  0  0  0  0  0  0  0  0  0  0
    0.5570  -22.7177   20.1816 C   0  0  0  0  0  0  0  0  0  0  0  0
   -1.4845  -24.1466   20.9437 C   0  0  0  0  0  0  0  0  0  0  0  0
   -4.3857  -27.8037   24.7806 C   0  0  0  0  0  0  0  0  0  0  0  0
   -4.1384  -28.7633   25.7961 C   0  0  0  0  0  0  0  0  0  0  0  0
   -4.9440  -28.8969   26.9322 C   0  0  0  0  0  0  0  0  0  0  0  0
   -5.3369  -30.0654   28.7072 H   0  0  0  0  0  0  0  0  0  0  0  0
   -3.4561  -31.6374   28.2408 H   0  0  0  0  0  0  0  0  0  0  0  0
   -1.2960  -30.0871   24.5617 H   0  0  0  0  0  0  0  0  0  0  0  0
   -1.7624  -28.5110   22.7653 H   0  0  0  0  0  0  0  0  0  0  0  0
   -6.0099  -26.2713   20.1867 H   0  0  0  0  0  0  0  0  0  0  0  0
   -3.5416  -25.1969   19.7177 H   0  0  0  0  0  0  0  0  0  0  0  0
   -2.0987  -24.7433   22.9408 H   0  0  0  0  0  0  0  0  0  0  0  0
   -0.6107  -26.4710   23.2220 H   0  0  0  0  0  0  0  0  0  0  0  0
   -0.6937  -27.0386   21.5508 H   0  0  0  0  0  0  0  0  0  0  0  0
    1.4850  -25.8834   22.4481 H   0  0  0  0  0  0  0  0  0  0  0  0
    0.9429  -25.5238   20.8152 H   0  0  0  0  0  0  0  0  0  0  0  0
   -1.7091  -21.7191   21.8318 H   0  0  0  0  0  0  0  0  0  0  0  0
   -1.0560  -22.4971   23.2598 H   0  0  0  0  0  0  0  0  0  0  0  0
   -0.3289  -20.1950   22.9462 H   0  0  0  0  0  0  0  0  0  0  0  0
    1.0631  -21.2950   23.0212 H   0  0  0  0  0  0  0  0  0  0  0  0
    2.2624  -21.7431   21.1092 H   0  0  0  0  0  0  0  0  0  0  0  0
    1.7505  -21.0653   19.5436 H   0  0  0  0  0  0  0  0  0  0  0  0
    1.2155  -23.4947   19.7776 H   0  0  0  0  0  0  0  0  0  0  0  0
   -0.1451  -22.4694   19.3885 H   0  0  0  0  0  0  0  0  0  0  0  0
   -2.3400  -23.5001   20.7126 H   0  0  0  0  0  0  0  0  0  0  0  0
   -1.2300  -24.6505   20.0000 H   0  0  0  0  0  0  0  0  0  0  0  0
   -5.2836  -27.1885   24.8260 H   0  0  0  0  0  0  0  0  0  0  0  0
   -5.7809  -28.2228   27.0972 H   0  0  0  0  0  0  0  0  0  0  0  0
  1  2  2  0
  2  3  1  0
  3  4  2  0
  4  5  1  0
  5  6  2  0
  6  7  1  0
  7  8  1  0
  8  9  2  0
  9 10  1  0
 10 11  2  0
 11 12  1  0
 12 13  1  0
 13 14  1  0
 14 15  1  0
 15 16  1  0
 16 17  1  0
 17 18  1  0
 18 19  1  0
 19 20  1  0
 20 21  1  0
 21 22  1  0
 17 23  1  0
  7 24  2  0
 24 25  1  0
 25 26  2  0
 26  1  1  0
 25  4  1  0
 12  8  1  0
 23 13  1  0
 22 17  1  0
  1 27  1  0
  2 28  1  0
  5 29  1  0
  6 30  1  0
 10 31  1  0
 11 32  1  0
 13 33  1  0
 14 34  1  0
 14 35  1  0
 15 36  1  0
 15 37  1  0
 18 38  1  0
 18 39  1  0
 19 40  1  0
 19 41  1  0
 21 42  1  0
 21 43  1  0
 22 44  1  0
 22 45  1  0
 23 46  1  0
 23 47  1  0
 24 48  1  0
 26 49  1  0
M  END
>  <Energy>  (517) 
71.245417323735197

>  <compound_id>  (517) 
46503

>  <target_id>  (517) 
1

>  <reference_id>  (517) 
68

>  <inspiration_ids>  (517) 
[80, 68]

>  <energy_score>  (517) 
-30.367733526655798

>  <distance_score>  (517) 
15.503340822496897

>  <path>  (517) 
/opt/xchem-fragalysis-2/maxwin/BulkDock/SCRATCH/511023/C46503-P68/C46503-P68.minimised.mol

>  <scratch_subdir>  (517) 
/opt/xchem-fragalysis-2/maxwin/BulkDock/SCRATCH/511023/C46503-P68

>  <fragmenstein_runtime>  (517) 
89.11683702468872

>  <fragmenstein_outcome>  (517) 
too moved

>  <fragmenstein_mode>  (517) 
expansion

>  <fragmenstein_error>  (517) 


$$$$
C46504-P80
     RDKit          3D

 43 45  0  0  0  0  0  0  0  0999 V2000
    6.8938  -21.9914   26.7526 C   0  0  0  0  0  0  0  0  0  0  0  0
    5.6733  -21.1923   26.3027 C   0  0  0  0  0  0  0  0  0  0  0  0
    5.8712  -19.6158   26.7362 C   0  0  0  0  0  0  0  0  0  0  0  0
    6.7992  -18.5634   26.0270 C   0  0  0  0  0  0  0  0  0  0  0  0
    7.8239  -18.5600   25.0871 C   0  0  0  0  0  0  0  0  0  0  0  0
    8.1914  -17.2781   24.7035 N   0  0  0  0  0  0  0  0  0  0  0  0
    7.4798  -16.4771   25.4543 C   0  0  0  0  0  0  0  0  0  0  0  0
    6.6643  -17.1930   26.2916 N   0  0  0  0  0  0  0  0  0  0  0  0
    4.2893  -21.9614   26.8980 C   0  0  0  0  0  0  0  0  0  0  0  0
    3.7207  -21.3532   27.7707 O   0  0  0  0  0  0  0  0  0  0  0  0
    3.9978  -23.3122   26.2996 N   0  0  0  0  0  0  0  0  0  0  0  0
    2.9284  -24.4035   26.6894 C   0  0  0  0  0  0  0  0  0  0  0  0
    1.9733  -25.1269   25.5557 C   0  0  0  0  0  0  0  0  0  0  0  0
    0.9825  -26.3281   25.7572 C   0  0  0  0  0  0  0  0  0  0  0  0
    0.5021  -26.7863   26.9816 C   0  0  0  0  0  0  0  0  0  0  0  0
   -0.4367  -27.8619   27.0624 C   0  0  0  0  0  0  0  0  0  0  0  0
   -0.9576  -28.5313   25.9531 C   0  0  0  0  0  0  0  0  0  0  0  0
   -1.8377  -29.5567   26.0952 N   0  0  0  0  0  0  0  0  0  0  0  0
   -2.3102  -30.1600   24.9777 C   0  0  0  0  0  0  0  0  0  0  0  0
   -1.9442  -29.7819   23.7021 C   0  0  0  0  0  0  0  0  0  0  0  0
   -1.0358  -28.7281   23.5685 C   0  0  0  0  0  0  0  0  0  0  0  0
   -0.5135  -28.0765   24.7029 C   0  0  0  0  0  0  0  0  0  0  0  0
    0.4349  -26.9964   24.6242 C   0  0  0  0  0  0  0  0  0  0  0  0
    6.8365  -23.0289   26.4088 H   0  0  0  0  0  0  0  0  0  0  0  0
    7.8166  -21.5577   26.3553 H   0  0  0  0  0  0  0  0  0  0  0  0
    6.9643  -22.0120   27.8452 H   0  0  0  0  0  0  0  0  0  0  0  0
    5.6194  -21.2473   25.2259 H   0  0  0  0  0  0  0  0  0  0  0  0
    4.8619  -19.1818   26.7323 H   0  0  0  0  0  0  0  0  0  0  0  0
    6.1769  -19.6196   27.7922 H   0  0  0  0  0  0  0  0  0  0  0  0
    8.2958  -19.4181   24.6249 H   0  0  0  0  0  0  0  0  0  0  0  0
    7.5147  -15.3959   25.4546 H   0  0  0  0  0  0  0  0  0  0  0  0
    6.0370  -16.7913   26.9749 H   0  0  0  0  0  0  0  0  0  0  0  0
    4.7310  -23.5503   25.6410 H   0  0  0  0  0  0  0  0  0  0  0  0
    3.5123  -25.1927   27.1755 H   0  0  0  0  0  0  0  0  0  0  0  0
    2.2881  -23.9481   27.4519 H   0  0  0  0  0  0  0  0  0  0  0  0
    1.3441  -24.3288   25.1609 H   0  0  0  0  0  0  0  0  0  0  0  0
    2.6597  -25.4236   24.7518 H   0  0  0  0  0  0  0  0  0  0  0  0
    0.8390  -26.3305   27.9106 H   0  0  0  0  0  0  0  0  0  0  0  0
   -0.7683  -28.1850   28.0487 H   0  0  0  0  0  0  0  0  0  0  0  0
   -3.0128  -30.9726   25.1421 H   0  0  0  0  0  0  0  0  0  0  0  0
   -2.3546  -30.2878   22.8350 H   0  0  0  0  0  0  0  0  0  0  0  0
   -0.7374  -28.4165   22.5706 H   0  0  0  0  0  0  0  0  0  0  0  0
    0.7539  -26.6756   23.6319 H   0  0  0  0  0  0  0  0  0  0  0  0
  1  2  1  0
  2  3  1  0
  3  4  1  0
  4  5  2  0
  5  6  1  0
  6  7  2  0
  7  8  1  0
  2  9  1  0
  9 10  2  0
  9 11  1  0
 11 12  1  0
 12 13  1  0
 13 14  1  0
 14 15  2  0
 15 16  1  0
 16 17  2  0
 17 18  1  0
 18 19  2  0
 19 20  1  0
 20 21  2  0
 21 22  1  0
 22 23  2  0
  8  4  1  0
 23 14  1  0
 22 17  1  0
  1 24  1  0
  1 25  1  0
  1 26  1  0
  2 27  1  0
  3 28  1  0
  3 29  1  0
  5 30  1  0
  7 31  1  0
  8 32  1  0
 11 33  1  0
 12 34  1  0
 12 35  1  0
 13 36  1  0
 13 37  1  0
 15 38  1  0
 16 39  1  0
 19 40  1  0
 20 41  1  0
 21 42  1  0
 23 43  1  0
M  END
>  <Energy>  (518) 
81.530340920217455

>  <compound_id>  (518) 
46504

>  <target_id>  (518) 
1

>  <reference_id>  (518) 
80

>  <inspiration_ids>  (518) 
[80, 68]

>  <energy_score>  (518) 
29.674427558542334

>  <distance_score>  (518) 
15.694636268181135

>  <path>  (518) 
/opt/xchem-fragalysis-2/maxwin/BulkDock/SCRATCH/511023/C46504-P80/C46504-P80.minimised.mol

>  <scratch_subdir>  (518) 
/opt/xchem-fragalysis-2/maxwin/BulkDock/SCRATCH/511023/C46504-P80

>  <fragmenstein_runtime>  (518) 
18.923306703567505

>  <fragmenstein_outcome>  (518) 
too moved

>  <fragmenstein_mode>  (518) 
expansion

>  <fragmenstein_error>  (518) 


$$$$
C46504-P68
     RDKit          3D

 43 45  0  0  0  0  0  0  0  0999 V2000
    0.6194  -23.0784   20.7846 C   0  0  0  0  0  0  0  0  0  0  0  0
   -0.3737  -22.0561   21.5234 C   0  0  0  0  0  0  0  0  0  0  0  0
    0.6215  -20.7076   20.9390 C   0  0  0  0  0  0  0  0  0  0  0  0
    1.3210  -20.7692   19.2658 C   0  0  0  0  0  0  0  0  0  0  0  0
    1.8872  -21.7503   18.4253 C   0  0  0  0  0  0  0  0  0  0  0  0
    2.4993  -21.2810   17.2793 N   0  0  0  0  0  0  0  0  0  0  0  0
    2.2600  -20.0085   17.2783 C   0  0  0  0  0  0  0  0  0  0  0  0
    1.5242  -19.6812   18.3757 N   0  0  0  0  0  0  0  0  0  0  0  0
   -1.7627  -22.4198   22.9932 C   0  0  0  0  0  0  0  0  0  0  0  0
   -1.8461  -21.4192   23.7535 O   0  0  0  0  0  0  0  0  0  0  0  0
   -2.9625  -24.3277   22.9537 N   0  0  0  0  0  0  0  0  0  0  0  0
   -4.2192  -24.9319   24.0378 C   0  0  0  0  0  0  0  0  0  0  0  0
   -4.6723  -26.3524   23.5606 C   0  0  0  0  0  0  0  0  0  0  0  0
   -3.8709  -27.5497   24.0585 C   0  0  0  0  0  0  0  0  0  0  0  0
   -2.9561  -28.1917   23.2253 C   0  0  0  0  0  0  0  0  0  0  0  0
   -2.3921  -29.4270   23.5920 C   0  0  0  0  0  0  0  0  0  0  0  0
   -2.7321  -30.0803   24.7703 C   0  0  0  0  0  0  0  0  0  0  0  0
   -2.3127  -31.3479   24.9844 N   0  0  0  0  0  0  0  0  0  0  0  0
   -2.7046  -31.9711   26.1135 C   0  0  0  0  0  0  0  0  0  0  0  0
   -3.4614  -31.3602   27.0903 C   0  0  0  0  0  0  0  0  0  0  0  0
   -3.8567  -30.0400   26.8845 C   0  0  0  0  0  0  0  0  0  0  0  0
   -3.5527  -29.3882   25.6762 C   0  0  0  0  0  0  0  0  0  0  0  0
   -4.0944  -28.1194   25.3226 C   0  0  0  0  0  0  0  0  0  0  0  0
    0.8422  -24.0309   21.2732 H   0  0  0  0  0  0  0  0  0  0  0  0
    0.3419  -23.2008   19.7258 H   0  0  0  0  0  0  0  0  0  0  0  0
    1.5804  -22.6617   20.5607 H   0  0  0  0  0  0  0  0  0  0  0  0
   -1.1055  -21.8054   20.7570 H   0  0  0  0  0  0  0  0  0  0  0  0
    1.4988  -20.6217   21.5779 H   0  0  0  0  0  0  0  0  0  0  0  0
    0.0363  -19.8241   21.1040 H   0  0  0  0  0  0  0  0  0  0  0  0
    1.9402  -22.8200   18.5576 H   0  0  0  0  0  0  0  0  0  0  0  0
    2.5628  -19.2978   16.5202 H   0  0  0  0  0  0  0  0  0  0  0  0
    1.3220  -18.7235   18.5620 H   0  0  0  0  0  0  0  0  0  0  0  0
   -2.7230  -24.9671   22.1396 H   0  0  0  0  0  0  0  0  0  0  0  0
   -5.0919  -24.2705   23.9609 H   0  0  0  0  0  0  0  0  0  0  0  0
   -3.8452  -25.0343   25.0655 H   0  0  0  0  0  0  0  0  0  0  0  0
   -4.7148  -26.3692   22.4644 H   0  0  0  0  0  0  0  0  0  0  0  0
   -5.7058  -26.5051   23.9001 H   0  0  0  0  0  0  0  0  0  0  0  0
   -2.7160  -27.7797   22.2470 H   0  0  0  0  0  0  0  0  0  0  0  0
   -1.7292  -29.9316   22.8901 H   0  0  0  0  0  0  0  0  0  0  0  0
   -2.3614  -32.9952   26.2234 H   0  0  0  0  0  0  0  0  0  0  0  0
   -3.7312  -31.8905   27.9964 H   0  0  0  0  0  0  0  0  0  0  0  0
   -4.4568  -29.5445   27.6434 H   0  0  0  0  0  0  0  0  0  0  0  0
   -4.7651  -27.6132   26.0145 H   0  0  0  0  0  0  0  0  0  0  0  0
  1  2  1  0
  2  3  1  0
  3  4  1  0
  4  5  2  0
  5  6  1  0
  6  7  2  0
  7  8  1  0
  2  9  1  0
  9 10  2  0
  9 11  1  0
 11 12  1  0
 12 13  1  0
 13 14  1  0
 14 15  2  0
 15 16  1  0
 16 17  2  0
 17 18  1  0
 18 19  2  0
 19 20  1  0
 20 21  2  0
 21 22  1  0
 22 23  2  0
  8  4  1  0
 23 14  1  0
 22 17  1  0
  1 24  1  0
  1 25  1  0
  1 26  1  0
  2 27  1  0
  3 28  1  0
  3 29  1  0
  5 30  1  0
  7 31  1  0
  8 32  1  0
 11 33  1  0
 12 34  1  0
 12 35  1  0
 13 36  1  0
 13 37  1  0
 15 38  1  0
 16 39  1  0
 19 40  1  0
 20 41  1  0
 21 42  1  0
 23 43  1  0
M  END
>  <Energy>  (519) 
605.67460371901461

>  <compound_id>  (519) 
46504

>  <target_id>  (519) 
1

>  <reference_id>  (519) 
68

>  <inspiration_ids>  (519) 
[80, 68]

>  <energy_score>  (519) 
553.8186903573294

>  <distance_score>  (519) 
14.443823412739437

>  <path>  (519) 
/opt/xchem-fragalysis-2/maxwin/BulkDock/SCRATCH/511023/C46504-P68/C46504-P68.minimised.mol

>  <scratch_subdir>  (519) 
/opt/xchem-fragalysis-2/maxwin/BulkDock/SCRATCH/511023/C46504-P68

>  <fragmenstein_runtime>  (519) 
23.06572651863098

>  <fragmenstein_outcome>  (519) 
too moved

>  <fragmenstein_mode>  (519) 
expansion

>  <fragmenstein_error>  (519) 


$$$$
C46505-P80
     RDKit          3D

 40 43  0  0  0  0  0  0  0  0999 V2000
   -8.0593  -21.3253   17.8032 C   0  0  0  0  0  0  0  0  0  0  0  0
   -7.8244  -22.4230   18.6113 C   0  0  0  0  0  0  0  0  0  0  0  0
   -6.7723  -22.4843   19.4351 N   0  0  0  0  0  0  0  0  0  0  0  0
   -5.9338  -21.4254   19.4344 C   0  0  0  0  0  0  0  0  0  0  0  0
   -4.8558  -21.4971   20.2364 C   0  0  0  0  0  0  0  0  0  0  0  0
   -3.8417  -20.4981   20.1741 C   0  0  0  0  0  0  0  0  0  0  0  0
   -3.7018  -19.3093   19.3423 C   0  0  0  0  0  0  0  0  0  0  0  0
   -2.3494  -18.1522   19.0273 C   0  0  0  0  0  0  0  0  0  0  0  0
   -2.8142  -16.9517   18.8464 N   0  0  0  0  0  0  0  0  0  0  0  0
   -2.3285  -16.5246   20.0076 C   0  0  0  0  0  0  0  0  0  0  0  0
   -1.4404  -17.4367   20.6171 C   0  0  0  0  0  0  0  0  0  0  0  0
   -0.7433  -17.6861   19.5154 N   0  0  0  0  0  0  0  0  0  0  0  0
    0.6267  -16.3412   19.6789 C   0  0  0  0  0  0  0  0  0  0  0  0
    2.0303  -15.0977   18.6640 C   0  0  0  0  0  0  0  0  0  0  0  0
    3.8023  -14.6942   18.2410 C   0  0  0  0  0  0  0  0  0  0  0  0
    4.6826  -13.4946   18.3875 N   0  0  0  0  0  0  0  0  0  0  0  0
    6.0777  -13.5400   18.2850 C   0  0  0  0  0  0  0  0  0  0  0  0
    6.5475  -12.2470   18.2831 C   0  0  0  0  0  0  0  0  0  0  0  0
    5.3907  -11.4691   18.3875 C   0  0  0  0  0  0  0  0  0  0  0  0
    4.2796  -12.2053   18.4475 N   0  0  0  0  0  0  0  0  0  0  0  0
   -4.9420  -19.1994   18.6582 C   0  0  0  0  0  0  0  0  0  0  0  0
   -6.0237  -20.2506   18.6534 C   0  0  0  0  0  0  0  0  0  0  0  0
   -7.1658  -20.2323   17.8350 C   0  0  0  0  0  0  0  0  0  0  0  0
   -8.9295  -21.2989   17.1547 H   0  0  0  0  0  0  0  0  0  0  0  0
   -8.4906  -23.2794   18.6221 H   0  0  0  0  0  0  0  0  0  0  0  0
   -4.7240  -22.3540   20.8935 H   0  0  0  0  0  0  0  0  0  0  0  0
   -3.0634  -20.8517   20.8106 H   0  0  0  0  0  0  0  0  0  0  0  0
   -2.5341  -15.5433   20.3541 H   0  0  0  0  0  0  0  0  0  0  0  0
   -0.7962  -17.5248   21.4581 H   0  0  0  0  0  0  0  0  0  0  0  0
    0.7430  -16.4216   20.7353 H   0  0  0  0  0  0  0  0  0  0  0  0
   -0.2652  -15.7366   19.7036 H   0  0  0  0  0  0  0  0  0  0  0  0
    2.4235  -15.8925   18.0078 H   0  0  0  0  0  0  0  0  0  0  0  0
    2.3669  -14.7616   19.6528 H   0  0  0  0  0  0  0  0  0  0  0  0
    4.4653  -15.5142   18.5404 H   0  0  0  0  0  0  0  0  0  0  0  0
    3.9033  -15.0435   17.2377 H   0  0  0  0  0  0  0  0  0  0  0  0
    6.5820  -14.4930   18.2264 H   0  0  0  0  0  0  0  0  0  0  0  0
    7.5747  -11.9220   18.2194 H   0  0  0  0  0  0  0  0  0  0  0  0
    5.2968  -10.3923   18.4202 H   0  0  0  0  0  0  0  0  0  0  0  0
   -5.0729  -18.3377   17.9981 H   0  0  0  0  0  0  0  0  0  0  0  0
   -7.3540  -19.3753   17.1908 H   0  0  0  0  0  0  0  0  0  0  0  0
  1  2  2  0
  2  3  1  0
  3  4  2  0
  4  5  1  0
  5  6  2  0
  6  7  1  0
  7  8  1  0
  8  9  2  0
  9 10  1  0
 10 11  2  0
 11 12  1  0
 12 13  1  0
 13 14  1  0
 14 15  1  0
 15 16  1  0
 16 17  1  0
 17 18  2  0
 18 19  1  0
 19 20  2  0
  7 21  2  0
 21 22  1  0
 22 23  2  0
 23  1  1  0
 22  4  1  0
 12  8  1  0
 20 16  1  0
  1 24  1  0
  2 25  1  0
  5 26  1  0
  6 27  1  0
 10 28  1  0
 11 29  1  0
 13 30  1  0
 13 31  1  0
 14 32  1  0
 14 33  1  0
 15 34  1  0
 15 35  1  0
 17 36  1  0
 18 37  1  0
 19 38  1  0
 21 39  1  0
 23 40  1  0
M  END
>  <Energy>  (520) 
584.98087736606726

>  <compound_id>  (520) 
46505

>  <target_id>  (520) 
1

>  <reference_id>  (520) 
80

>  <inspiration_ids>  (520) 
[80, 68]

>  <energy_score>  (520) 
516.8237723436985

>  <distance_score>  (520) 
16.21405717071652

>  <path>  (520) 
/opt/xchem-fragalysis-2/maxwin/BulkDock/SCRATCH/511023/C46505-P80/C46505-P80.minimised.mol

>  <scratch_subdir>  (520) 
/opt/xchem-fragalysis-2/maxwin/BulkDock/SCRATCH/511023/C46505-P80

>  <fragmenstein_runtime>  (520) 
9.092824697494507

>  <fragmenstein_outcome>  (520) 
too moved

>  <fragmenstein_mode>  (520) 
expansion

>  <fragmenstein_error>  (520) 


$$$$
C46505-P68
     RDKit          3D

 40 43  0  0  0  0  0  0  0  0999 V2000
   -2.0215  -29.4681   20.1284 C   0  0  0  0  0  0  0  0  0  0  0  0
   -3.0488  -29.3985   19.2092 C   0  0  0  0  0  0  0  0  0  0  0  0
   -3.2269  -28.3670   18.3575 N   0  0  0  0  0  0  0  0  0  0  0  0
   -2.3526  -27.3399   18.4167 C   0  0  0  0  0  0  0  0  0  0  0  0
   -2.4894  -26.2433   17.5674 C   0  0  0  0  0  0  0  0  0  0  0  0
   -1.6409  -25.1005   17.6199 C   0  0  0  0  0  0  0  0  0  0  0  0
   -0.5873  -25.0188   18.5288 C   0  0  0  0  0  0  0  0  0  0  0  0
    0.0153  -23.7173   19.0073 C   0  0  0  0  0  0  0  0  0  0  0  0
   -0.3935  -23.3915   20.2393 N   0  0  0  0  0  0  0  0  0  0  0  0
    0.4052  -22.4023   20.7016 C   0  0  0  0  0  0  0  0  0  0  0  0
    1.2650  -22.0068   19.7232 C   0  0  0  0  0  0  0  0  0  0  0  0
    0.9613  -22.7140   18.5678 N   0  0  0  0  0  0  0  0  0  0  0  0
    1.6456  -22.2704   17.2795 C   0  0  0  0  0  0  0  0  0  0  0  0
    2.4769  -20.7561   17.2346 C   0  0  0  0  0  0  0  0  0  0  0  0
    2.9749  -20.0497   15.8900 C   0  0  0  0  0  0  0  0  0  0  0  0
    4.0911  -19.0818   15.9246 N   0  0  0  0  0  0  0  0  0  0  0  0
    4.0445  -17.7094   16.0645 C   0  0  0  0  0  0  0  0  0  0  0  0
    5.3244  -17.2336   15.8708 C   0  0  0  0  0  0  0  0  0  0  0  0
    6.0760  -18.3769   15.5657 C   0  0  0  0  0  0  0  0  0  0  0  0
    5.3543  -19.5050   15.6297 N   0  0  0  0  0  0  0  0  0  0  0  0
   -0.4356  -26.1570   19.3732 C   0  0  0  0  0  0  0  0  0  0  0  0
   -1.2880  -27.3006   19.3295 C   0  0  0  0  0  0  0  0  0  0  0  0
   -1.1331  -28.3981   20.1913 C   0  0  0  0  0  0  0  0  0  0  0  0
   -1.9150  -30.3240   20.7849 H   0  0  0  0  0  0  0  0  0  0  0  0
   -3.7933  -30.1797   19.1268 H   0  0  0  0  0  0  0  0  0  0  0  0
   -3.3169  -26.2478   16.8599 H   0  0  0  0  0  0  0  0  0  0  0  0
   -1.8836  -24.2471   16.9982 H   0  0  0  0  0  0  0  0  0  0  0  0
    0.3292  -22.0245   21.7130 H   0  0  0  0  0  0  0  0  0  0  0  0
    2.0370  -21.2606   19.7505 H   0  0  0  0  0  0  0  0  0  0  0  0
    2.3808  -23.0571   17.0767 H   0  0  0  0  0  0  0  0  0  0  0  0
    0.8772  -22.2960   16.5154 H   0  0  0  0  0  0  0  0  0  0  0  0
    3.3754  -20.9806   17.7951 H   0  0  0  0  0  0  0  0  0  0  0  0
    1.8737  -20.0321   17.7918 H   0  0  0  0  0  0  0  0  0  0  0  0
    3.2915  -20.8410   15.1990 H   0  0  0  0  0  0  0  0  0  0  0  0
    2.1501  -19.5263   15.4060 H   0  0  0  0  0  0  0  0  0  0  0  0
    3.1123  -17.2120   16.2836 H   0  0  0  0  0  0  0  0  0  0  0  0
    5.6698  -16.2157   15.9311 H   0  0  0  0  0  0  0  0  0  0  0  0
    7.1267  -18.4463   15.3171 H   0  0  0  0  0  0  0  0  0  0  0  0
    0.3217  -26.1071   20.1582 H   0  0  0  0  0  0  0  0  0  0  0  0
   -0.3243  -28.4195   20.9173 H   0  0  0  0  0  0  0  0  0  0  0  0
  1  2  2  0
  2  3  1  0
  3  4  2  0
  4  5  1  0
  5  6  2  0
  6  7  1  0
  7  8  1  0
  8  9  2  0
  9 10  1  0
 10 11  2  0
 11 12  1  0
 12 13  1  0
 13 14  1  0
 14 15  1  0
 15 16  1  0
 16 17  1  0
 17 18  2  0
 18 19  1  0
 19 20  2  0
  7 21  2  0
 21 22  1  0
 22 23  2  0
 23  1  1  0
 22  4  1  0
 12  8  1  0
 20 16  1  0
  1 24  1  0
  2 25  1  0
  5 26  1  0
  6 27  1  0
 10 28  1  0
 11 29  1  0
 13 30  1  0
 13 31  1  0
 14 32  1  0
 14 33  1  0
 15 34  1  0
 15 35  1  0
 17 36  1  0
 18 37  1  0
 19 38  1  0
 21 39  1  0
 23 40  1  0
M  END
>  <Energy>  (521) 
98.428991629516219

>  <compound_id>  (521) 
46505

>  <target_id>  (521) 
1

>  <reference_id>  (521) 
68

>  <inspiration_ids>  (521) 
[80, 68]

>  <energy_score>  (521) 
30.271886607153306

>  <distance_score>  (521) 
15.572162845570933

>  <path>  (521) 
/opt/xchem-fragalysis-2/maxwin/BulkDock/SCRATCH/511023/C46505-P68/C46505-P68.minimised.mol

>  <scratch_subdir>  (521) 
/opt/xchem-fragalysis-2/maxwin/BulkDock/SCRATCH/511023/C46505-P68

>  <fragmenstein_runtime>  (521) 
14.83565092086792

>  <fragmenstein_outcome>  (521) 
too moved

>  <fragmenstein_mode>  (521) 
expansion

>  <fragmenstein_error>  (521) 


$$$$
C46506-P80
     RDKit          3D

 41 43  0  0  0  0  0  0  0  0999 V2000
    9.4258   -6.1909   19.3127 C   0  0  0  0  0  0  0  0  0  0  0  0
    7.2795   -6.6578   19.1514 C   0  0  0  0  0  0  0  0  0  0  0  0
    5.7028   -7.5189   18.3486 C   0  0  0  0  0  0  0  0  0  0  0  0
    4.3361   -7.0244   18.0447 C   0  0  0  0  0  0  0  0  0  0  0  0
    3.1100   -8.2976   17.9655 N   0  0  0  0  0  0  0  0  0  0  0  0
    3.6880   -9.7309   17.6944 C   0  0  0  0  0  0  0  0  0  0  0  0
    3.3131  -11.7734   17.6806 C   0  0  0  0  0  0  0  0  0  0  0  0
    2.1248  -13.4008   17.9740 N   0  0  0  0  0  0  0  0  0  0  0  0
    2.0787  -15.0224   18.7538 C   0  0  0  0  0  0  0  0  0  0  0  0
    0.6710  -16.2681   19.7303 C   0  0  0  0  0  0  0  0  0  0  0  0
   -0.0523  -18.0102   19.7248 C   0  0  0  0  0  0  0  0  0  0  0  0
   -0.8063  -18.4464   20.8301 C   0  0  0  0  0  0  0  0  0  0  0  0
   -1.3837  -19.7513   21.0024 C   0  0  0  0  0  0  0  0  0  0  0  0
   -1.2364  -20.7736   20.0874 C   0  0  0  0  0  0  0  0  0  0  0  0
   -1.7886  -22.0025   20.3210 N   0  0  0  0  0  0  0  0  0  0  0  0
   -1.5782  -22.9766   19.4135 C   0  0  0  0  0  0  0  0  0  0  0  0
   -0.8392  -22.7722   18.2663 C   0  0  0  0  0  0  0  0  0  0  0  0
   -0.2833  -21.4968   18.0431 C   0  0  0  0  0  0  0  0  0  0  0  0
   -0.4648  -20.4377   18.9577 C   0  0  0  0  0  0  0  0  0  0  0  0
    0.1146  -19.0781   18.7916 C   0  0  0  0  0  0  0  0  0  0  0  0
    5.1567   -9.1591   18.3212 N   0  0  0  0  0  0  0  0  0  0  0  0
   10.1751   -5.7577   18.6371 H   0  0  0  0  0  0  0  0  0  0  0  0
   10.0961   -6.2218   20.2138 H   0  0  0  0  0  0  0  0  0  0  0  0
    9.3270   -5.1267   19.8472 H   0  0  0  0  0  0  0  0  0  0  0  0
    7.2127   -7.5566   19.8261 H   0  0  0  0  0  0  0  0  0  0  0  0
    6.7240   -5.7926   19.5858 H   0  0  0  0  0  0  0  0  0  0  0  0
    3.8726   -6.0540   18.0868 H   0  0  0  0  0  0  0  0  0  0  0  0
    2.1257   -8.1164   17.9032 H   0  0  0  0  0  0  0  0  0  0  0  0
    4.1343  -12.2474   18.1714 H   0  0  0  0  0  0  0  0  0  0  0  0
    3.3328  -11.6899   16.5951 H   0  0  0  0  0  0  0  0  0  0  0  0
    2.0694  -13.8125   17.0183 H   0  0  0  0  0  0  0  0  0  0  0  0
    2.8077  -15.5259   18.1134 H   0  0  0  0  0  0  0  0  0  0  0  0
    2.5133  -14.6575   19.6666 H   0  0  0  0  0  0  0  0  0  0  0  0
    0.8225  -16.1194   20.7718 H   0  0  0  0  0  0  0  0  0  0  0  0
   -0.3616  -15.8557   19.7677 H   0  0  0  0  0  0  0  0  0  0  0  0
   -0.8987  -17.7946   21.6707 H   0  0  0  0  0  0  0  0  0  0  0  0
   -1.9294  -19.9516   21.9223 H   0  0  0  0  0  0  0  0  0  0  0  0
   -2.0285  -23.9371   19.6398 H   0  0  0  0  0  0  0  0  0  0  0  0
   -0.6858  -23.5740   17.5532 H   0  0  0  0  0  0  0  0  0  0  0  0
    0.3056  -21.3307   17.1433 H   0  0  0  0  0  0  0  0  0  0  0  0
    0.7731  -18.9321   17.9378 H   0  0  0  0  0  0  0  0  0  0  0  0
  1  2  1  0
  2  3  1  0
  3  4  2  0
  4  5  1  0
  5  6  1  0
  6  7  1  0
  7  8  1  0
  8  9  1  0
  9 10  1  0
 10 11  1  0
 11 12  2  0
 12 13  1  0
 13 14  2  0
 14 15  1  0
 15 16  2  0
 16 17  1  0
 17 18  2  0
 18 19  1  0
 19 20  2  0
  6 21  2  0
 21  3  1  0
 20 11  1  0
 19 14  1  0
  1 22  1  0
  1 23  1  0
  1 24  1  0
  2 25  1  0
  2 26  1  0
  4 27  1  0
  5 28  1  0
  7 29  1  0
  7 30  1  0
  8 31  1  0
  9 32  1  0
  9 33  1  0
 10 34  1  0
 10 35  1  0
 12 36  1  0
 13 37  1  0
 16 38  1  0
 17 39  1  0
 18 40  1  0
 20 41  1  0
M  END
>  <Energy>  (522) 
976.88706983196755

>  <compound_id>  (522) 
46506

>  <target_id>  (522) 
1

>  <reference_id>  (522) 
80

>  <inspiration_ids>  (522) 
[80, 68]

>  <energy_score>  (522) 
894.7274427286419

>  <distance_score>  (522) 
16.932081896975628

>  <path>  (522) 
/opt/xchem-fragalysis-2/maxwin/BulkDock/SCRATCH/511023/C46506-P80/C46506-P80.minimised.mol

>  <scratch_subdir>  (522) 
/opt/xchem-fragalysis-2/maxwin/BulkDock/SCRATCH/511023/C46506-P80

>  <fragmenstein_runtime>  (522) 
11.830228567123413

>  <fragmenstein_outcome>  (522) 
too moved

>  <fragmenstein_mode>  (522) 
expansion

>  <fragmenstein_error>  (522) 


$$$$
C46506-P68
     RDKit          3D

 41 43  0  0  0  0  0  0  0  0999 V2000
   -3.9716  -16.2317   12.5284 C   0  0  0  0  0  0  0  0  0  0  0  0
   -3.7409  -15.7535   13.9547 C   0  0  0  0  0  0  0  0  0  0  0  0
   -4.0113  -16.8196   14.9756 C   0  0  0  0  0  0  0  0  0  0  0  0
   -4.5787  -16.6519   16.2159 C   0  0  0  0  0  0  0  0  0  0  0  0
   -4.5685  -17.8906   16.8071 N   0  0  0  0  0  0  0  0  0  0  0  0
   -4.0860  -18.8209   15.9106 C   0  0  0  0  0  0  0  0  0  0  0  0
   -3.9731  -20.3616   16.2471 C   0  0  0  0  0  0  0  0  0  0  0  0
   -5.1200  -21.0542   16.9890 N   0  0  0  0  0  0  0  0  0  0  0  0
   -4.8466  -22.5485   17.2475 C   0  0  0  0  0  0  0  0  0  0  0  0
   -5.9469  -23.4265   17.9994 C   0  0  0  0  0  0  0  0  0  0  0  0
   -5.6004  -24.9113   18.2317 C   0  0  0  0  0  0  0  0  0  0  0  0
   -6.1402  -25.9289   17.4345 C   0  0  0  0  0  0  0  0  0  0  0  0
   -5.7423  -27.2745   17.5942 C   0  0  0  0  0  0  0  0  0  0  0  0
   -4.7971  -27.6664   18.5324 C   0  0  0  0  0  0  0  0  0  0  0  0
   -4.3632  -28.9445   18.5744 N   0  0  0  0  0  0  0  0  0  0  0  0
   -3.3330  -29.2287   19.3964 C   0  0  0  0  0  0  0  0  0  0  0  0
   -2.7603  -28.3163   20.2595 C   0  0  0  0  0  0  0  0  0  0  0  0
   -3.2573  -27.0178   20.2611 C   0  0  0  0  0  0  0  0  0  0  0  0
   -4.2743  -26.6580   19.3672 C   0  0  0  0  0  0  0  0  0  0  0  0
   -4.7007  -25.3096   19.2334 C   0  0  0  0  0  0  0  0  0  0  0  0
   -3.6767  -18.1661   14.8149 N   0  0  0  0  0  0  0  0  0  0  0  0
   -3.3312  -17.0819   12.2739 H   0  0  0  0  0  0  0  0  0  0  0  0
   -5.0109  -16.5481   12.3867 H   0  0  0  0  0  0  0  0  0  0  0  0
   -3.7642  -15.4233   11.8202 H   0  0  0  0  0  0  0  0  0  0  0  0
   -2.7430  -15.3433   14.0732 H   0  0  0  0  0  0  0  0  0  0  0  0
   -4.4341  -14.9244   14.1329 H   0  0  0  0  0  0  0  0  0  0  0  0
   -4.9732  -15.7834   16.7154 H   0  0  0  0  0  0  0  0  0  0  0  0
   -4.8828  -18.1213   17.7395 H   0  0  0  0  0  0  0  0  0  0  0  0
   -3.8260  -20.8803   15.2922 H   0  0  0  0  0  0  0  0  0  0  0  0
   -3.0617  -20.4827   16.8437 H   0  0  0  0  0  0  0  0  0  0  0  0
   -5.9310  -20.9998   16.3705 H   0  0  0  0  0  0  0  0  0  0  0  0
   -4.6498  -23.0189   16.2763 H   0  0  0  0  0  0  0  0  0  0  0  0
   -3.9202  -22.6060   17.8317 H   0  0  0  0  0  0  0  0  0  0  0  0
   -6.8824  -23.3654   17.4295 H   0  0  0  0  0  0  0  0  0  0  0  0
   -6.1516  -22.9680   18.9751 H   0  0  0  0  0  0  0  0  0  0  0  0
   -6.8590  -25.6911   16.6528 H   0  0  0  0  0  0  0  0  0  0  0  0
   -6.1583  -28.0306   16.9317 H   0  0  0  0  0  0  0  0  0  0  0  0
   -2.9580  -30.2407   19.3500 H   0  0  0  0  0  0  0  0  0  0  0  0
   -1.9410  -28.6071   20.9069 H   0  0  0  0  0  0  0  0  0  0  0  0
   -2.8100  -26.2774   20.9190 H   0  0  0  0  0  0  0  0  0  0  0  0
   -4.2602  -24.5474   19.8753 H   0  0  0  0  0  0  0  0  0  0  0  0
  1  2  1  0
  2  3  1  0
  3  4  2  0
  4  5  1  0
  5  6  1  0
  6  7  1  0
  7  8  1  0
  8  9  1  0
  9 10  1  0
 10 11  1  0
 11 12  2  0
 12 13  1  0
 13 14  2  0
 14 15  1  0
 15 16  2  0
 16 17  1  0
 17 18  2  0
 18 19  1  0
 19 20  2  0
  6 21  2  0
 21  3  1  0
 20 11  1  0
 19 14  1  0
  1 22  1  0
  1 23  1  0
  1 24  1  0
  2 25  1  0
  2 26  1  0
  4 27  1  0
  5 28  1  0
  7 29  1  0
  7 30  1  0
  8 31  1  0
  9 32  1  0
  9 33  1  0
 10 34  1  0
 10 35  1  0
 12 36  1  0
 13 37  1  0
 16 38  1  0
 17 39  1  0
 18 40  1  0
 20 41  1  0
M  END
>  <Energy>  (523) 
64.791185062768747

>  <compound_id>  (523) 
46506

>  <target_id>  (523) 
1

>  <reference_id>  (523) 
68

>  <inspiration_ids>  (523) 
[80, 68]

>  <energy_score>  (523) 
-17.368442040560012

>  <distance_score>  (523) 
15.920838246316224

>  <path>  (523) 
/opt/xchem-fragalysis-2/maxwin/BulkDock/SCRATCH/511023/C46506-P68/C46506-P68.minimised.mol

>  <scratch_subdir>  (523) 
/opt/xchem-fragalysis-2/maxwin/BulkDock/SCRATCH/511023/C46506-P68

>  <fragmenstein_runtime>  (523) 
20.482047080993652

>  <fragmenstein_outcome>  (523) 
too moved

>  <fragmenstein_mode>  (523) 
expansion

>  <fragmenstein_error>  (523) 


$$$$
C46507-P80
     RDKit          3D

 44 46  0  0  0  0  0  0  0  0999 V2000
    0.9179  -22.0593   21.5079 C   0  0  0  0  0  0  0  0  0  0  0  0
    0.0525  -20.8133   21.3236 C   0  0  0  0  0  0  0  0  0  0  0  0
   -0.8711  -20.5541   22.5125 C   0  0  0  0  0  0  0  0  0  0  0  0
   -0.6605  -20.7733   20.0501 N   0  0  0  0  0  0  0  0  0  0  0  0
   -0.5220  -19.7348   19.1498 C   0  0  0  0  0  0  0  0  0  0  0  0
   -1.2720  -20.0940   18.0664 C   0  0  0  0  0  0  0  0  0  0  0  0
   -1.8974  -21.2990   18.2950 N   0  0  0  0  0  0  0  0  0  0  0  0
   -1.5551  -21.7116   19.5124 C   0  0  0  0  0  0  0  0  0  0  0  0
   -1.9445  -23.1026   20.1795 C   0  0  0  0  0  0  0  0  0  0  0  0
   -3.3143  -23.7062   19.9287 N   0  0  0  0  0  0  0  0  0  0  0  0
   -3.4899  -25.1084   20.5189 C   0  0  0  0  0  0  0  0  0  0  0  0
   -4.9044  -25.8030   20.3515 C   0  0  0  0  0  0  0  0  0  0  0  0
   -5.1308  -27.2144   20.9307 C   0  0  0  0  0  0  0  0  0  0  0  0
   -5.6599  -27.4058   22.2131 C   0  0  0  0  0  0  0  0  0  0  0  0
   -5.9930  -28.6952   22.6882 C   0  0  0  0  0  0  0  0  0  0  0  0
   -5.8193  -29.8416   21.9241 C   0  0  0  0  0  0  0  0  0  0  0  0
   -6.1658  -31.0472   22.4181 N   0  0  0  0  0  0  0  0  0  0  0  0
   -5.9825  -32.1330   21.6384 C   0  0  0  0  0  0  0  0  0  0  0  0
   -5.4524  -32.0792   20.3649 C   0  0  0  0  0  0  0  0  0  0  0  0
   -5.0917  -30.8309   19.8618 C   0  0  0  0  0  0  0  0  0  0  0  0
   -5.2712  -29.6748   20.6392 C   0  0  0  0  0  0  0  0  0  0  0  0
   -4.9307  -28.3753   20.1620 C   0  0  0  0  0  0  0  0  0  0  0  0
    1.5971  -21.9255   22.3572 H   0  0  0  0  0  0  0  0  0  0  0  0
    0.3268  -22.9561   21.7080 H   0  0  0  0  0  0  0  0  0  0  0  0
    1.5279  -22.2491   20.6179 H   0  0  0  0  0  0  0  0  0  0  0  0
    0.7556  -19.9752   21.2738 H   0  0  0  0  0  0  0  0  0  0  0  0
   -1.6197  -21.3405   22.6383 H   0  0  0  0  0  0  0  0  0  0  0  0
   -1.4083  -19.6073   22.3872 H   0  0  0  0  0  0  0  0  0  0  0  0
   -0.2965  -20.4931   23.4427 H   0  0  0  0  0  0  0  0  0  0  0  0
    0.0807  -18.8680   19.3507 H   0  0  0  0  0  0  0  0  0  0  0  0
   -1.4174  -19.5682   17.1335 H   0  0  0  0  0  0  0  0  0  0  0  0
   -1.8535  -22.9985   21.2620 H   0  0  0  0  0  0  0  0  0  0  0  0
   -1.1884  -23.8181   19.8340 H   0  0  0  0  0  0  0  0  0  0  0  0
   -3.4323  -23.7455   18.9147 H   0  0  0  0  0  0  0  0  0  0  0  0
   -2.7324  -25.7605   20.0680 H   0  0  0  0  0  0  0  0  0  0  0  0
   -3.2733  -25.0451   21.5919 H   0  0  0  0  0  0  0  0  0  0  0  0
   -5.1366  -25.8421   19.2788 H   0  0  0  0  0  0  0  0  0  0  0  0
   -5.6613  -25.1371   20.7870 H   0  0  0  0  0  0  0  0  0  0  0  0
   -5.8557  -26.5505   22.8569 H   0  0  0  0  0  0  0  0  0  0  0  0
   -6.4182  -28.8047   23.6845 H   0  0  0  0  0  0  0  0  0  0  0  0
   -6.2789  -33.0750   22.0873 H   0  0  0  0  0  0  0  0  0  0  0  0
   -5.3210  -32.9814   19.7814 H   0  0  0  0  0  0  0  0  0  0  0  0
   -4.6759  -30.7612   18.8611 H   0  0  0  0  0  0  0  0  0  0  0  0
   -4.5347  -28.2752   19.1527 H   0  0  0  0  0  0  0  0  0  0  0  0
  1  2  1  0
  2  3  1  0
  2  4  1  0
  4  5  1  0
  5  6  2  0
  6  7  1  0
  7  8  2  0
  8  9  1  0
  9 10  1  0
 10 11  1  0
 11 12  1  0
 12 13  1  0
 13 14  2  0
 14 15  1  0
 15 16  2  0
 16 17  1  0
 17 18  2  0
 18 19  1  0
 19 20  2  0
 20 21  1  0
 21 22  2  0
  8  4  1  0
 22 13  1  0
 21 16  1  0
  1 23  1  0
  1 24  1  0
  1 25  1  0
  2 26  1  0
  3 27  1  0
  3 28  1  0
  3 29  1  0
  5 30  1  0
  6 31  1  0
  9 32  1  0
  9 33  1  0
 10 34  1  0
 11 35  1  0
 11 36  1  0
 12 37  1  0
 12 38  1  0
 14 39  1  0
 15 40  1  0
 18 41  1  0
 19 42  1  0
 20 43  1  0
 22 44  1  0
M  END
>  <Energy>  (524) 
74.383464834040183

>  <compound_id>  (524) 
46507

>  <target_id>  (524) 
1

>  <reference_id>  (524) 
80

>  <inspiration_ids>  (524) 
[80, 68]

>  <energy_score>  (524) 
-8.787720108399299

>  <distance_score>  (524) 
14.882764117296727

>  <path>  (524) 
/opt/xchem-fragalysis-2/maxwin/BulkDock/SCRATCH/511023/C46507-P80/C46507-P80.minimised.mol

>  <scratch_subdir>  (524) 
/opt/xchem-fragalysis-2/maxwin/BulkDock/SCRATCH/511023/C46507-P80

>  <fragmenstein_runtime>  (524) 
18.059248208999634

>  <fragmenstein_outcome>  (524) 
too moved

>  <fragmenstein_mode>  (524) 
expansion

>  <fragmenstein_error>  (524) 


$$$$
C46507-P68
     RDKit          3D

 44 46  0  0  0  0  0  0  0  0999 V2000
    0.7863  -21.3860   24.5112 C   0  0  0  0  0  0  0  0  0  0  0  0
    1.2247  -22.5349   23.6007 C   0  0  0  0  0  0  0  0  0  0  0  0
    2.6815  -22.9213   23.8559 C   0  0  0  0  0  0  0  0  0  0  0  0
    0.9919  -22.2298   22.1935 N   0  0  0  0  0  0  0  0  0  0  0  0
    1.5194  -21.1580   21.5186 C   0  0  0  0  0  0  0  0  0  0  0  0
    1.1012  -21.3069   20.2211 C   0  0  0  0  0  0  0  0  0  0  0  0
    0.3078  -22.4139   20.1017 N   0  0  0  0  0  0  0  0  0  0  0  0
    0.3009  -23.0215   21.2838 C   0  0  0  0  0  0  0  0  0  0  0  0
   -0.1061  -24.5140   21.5078 C   0  0  0  0  0  0  0  0  0  0  0  0
   -1.3732  -24.8752   22.2433 N   0  0  0  0  0  0  0  0  0  0  0  0
   -1.5122  -26.3805   22.3540 C   0  0  0  0  0  0  0  0  0  0  0  0
   -2.7135  -26.9958   23.1732 C   0  0  0  0  0  0  0  0  0  0  0  0
   -2.5271  -28.4487   23.6512 C   0  0  0  0  0  0  0  0  0  0  0  0
   -1.7426  -29.3723   22.9536 C   0  0  0  0  0  0  0  0  0  0  0  0
   -1.5608  -30.6865   23.4285 C   0  0  0  0  0  0  0  0  0  0  0  0
   -2.1951  -31.1633   24.5695 C   0  0  0  0  0  0  0  0  0  0  0  0
   -2.0920  -32.4718   24.8977 N   0  0  0  0  0  0  0  0  0  0  0  0
   -2.7521  -32.9064   25.9878 C   0  0  0  0  0  0  0  0  0  0  0  0
   -3.5064  -32.0824   26.7939 C   0  0  0  0  0  0  0  0  0  0  0  0
   -3.6156  -30.7376   26.4485 C   0  0  0  0  0  0  0  0  0  0  0  0
   -2.9938  -30.2528   25.2888 C   0  0  0  0  0  0  0  0  0  0  0  0
   -3.1574  -28.9153   24.8236 C   0  0  0  0  0  0  0  0  0  0  0  0
    0.8642  -21.6779   25.5639 H   0  0  0  0  0  0  0  0  0  0  0  0
   -0.2546  -21.1063   24.3145 H   0  0  0  0  0  0  0  0  0  0  0  0
    1.4045  -20.4935   24.3664 H   0  0  0  0  0  0  0  0  0  0  0  0
    0.5988  -23.3984   23.8487 H   0  0  0  0  0  0  0  0  0  0  0  0
    2.9826  -23.7565   23.2140 H   0  0  0  0  0  0  0  0  0  0  0  0
    3.3623  -22.0865   23.6557 H   0  0  0  0  0  0  0  0  0  0  0  0
    2.8233  -23.2285   24.8974 H   0  0  0  0  0  0  0  0  0  0  0  0
    2.1751  -20.4492   21.9983 H   0  0  0  0  0  0  0  0  0  0  0  0
    1.3382  -20.7150   19.3485 H   0  0  0  0  0  0  0  0  0  0  0  0
    0.7413  -24.9979   22.0105 H   0  0  0  0  0  0  0  0  0  0  0  0
   -0.1738  -24.9576   20.5059 H   0  0  0  0  0  0  0  0  0  0  0  0
   -1.3306  -24.4779   23.1776 H   0  0  0  0  0  0  0  0  0  0  0  0
   -0.5840  -26.7436   22.8141 H   0  0  0  0  0  0  0  0  0  0  0  0
   -1.5540  -26.7897   21.3371 H   0  0  0  0  0  0  0  0  0  0  0  0
   -3.6300  -26.9345   22.5750 H   0  0  0  0  0  0  0  0  0  0  0  0
   -2.8562  -26.3705   24.0636 H   0  0  0  0  0  0  0  0  0  0  0  0
   -1.2506  -29.1006   22.0217 H   0  0  0  0  0  0  0  0  0  0  0  0
   -0.9551  -31.3762   22.8416 H   0  0  0  0  0  0  0  0  0  0  0  0
   -2.6336  -33.9594   26.2200 H   0  0  0  0  0  0  0  0  0  0  0  0
   -3.9814  -32.4739   27.6841 H   0  0  0  0  0  0  0  0  0  0  0  0
   -4.2029  -30.0754   27.0780 H   0  0  0  0  0  0  0  0  0  0  0  0
   -3.7875  -28.2302   25.3884 H   0  0  0  0  0  0  0  0  0  0  0  0
  1  2  1  0
  2  3  1  0
  2  4  1  0
  4  5  1  0
  5  6  2  0
  6  7  1  0
  7  8  2  0
  8  9  1  0
  9 10  1  0
 10 11  1  0
 11 12  1  0
 12 13  1  0
 13 14  2  0
 14 15  1  0
 15 16  2  0
 16 17  1  0
 17 18  2  0
 18 19  1  0
 19 20  2  0
 20 21  1  0
 21 22  2  0
  8  4  1  0
 22 13  1  0
 21 16  1  0
  1 23  1  0
  1 24  1  0
  1 25  1  0
  2 26  1  0
  3 27  1  0
  3 28  1  0
  3 29  1  0
  5 30  1  0
  6 31  1  0
  9 32  1  0
  9 33  1  0
 10 34  1  0
 11 35  1  0
 11 36  1  0
 12 37  1  0
 12 38  1  0
 14 39  1  0
 15 40  1  0
 18 41  1  0
 19 42  1  0
 20 43  1  0
 22 44  1  0
M  END
>  <Energy>  (525) 
74.762914371397486

>  <compound_id>  (525) 
46507

>  <target_id>  (525) 
1

>  <reference_id>  (525) 
68

>  <inspiration_ids>  (525) 
[80, 68]

>  <energy_score>  (525) 
-8.408270571038884

>  <distance_score>  (525) 
15.38305116498075

>  <path>  (525) 
/opt/xchem-fragalysis-2/maxwin/BulkDock/SCRATCH/511023/C46507-P68/C46507-P68.minimised.mol

>  <scratch_subdir>  (525) 
/opt/xchem-fragalysis-2/maxwin/BulkDock/SCRATCH/511023/C46507-P68

>  <fragmenstein_runtime>  (525) 
20.006276845932007

>  <fragmenstein_outcome>  (525) 
too moved

>  <fragmenstein_mode>  (525) 
expansion

>  <fragmenstein_error>  (525) 


$$$$
C46508-P80
     RDKit          3D

 43 45  0  0  0  0  0  0  0  0999 V2000
   -0.2686  -24.9329   15.7665 O   0  0  0  0  0  0  0  0  0  0  0  0
    0.1120  -25.0615   16.8981 C   0  0  0  0  0  0  0  0  0  0  0  0
    1.3739  -24.1912   17.3414 C   0  0  0  0  0  0  0  0  0  0  0  0
    1.9312  -23.1358   16.2780 C   0  0  0  0  0  0  0  0  0  0  0  0
    3.0120  -22.1185   16.8132 C   0  0  0  0  0  0  0  0  0  0  0  0
    3.6441  -21.1328   15.9039 N   0  0  0  0  0  0  0  0  0  0  0  0
    3.0805  -20.0104   15.3523 C   0  0  0  0  0  0  0  0  0  0  0  0
    4.1069  -19.3115   14.7465 C   0  0  0  0  0  0  0  0  0  0  0  0
    5.3103  -19.9256   14.9793 N   0  0  0  0  0  0  0  0  0  0  0  0
    4.9944  -21.0353   15.6220 C   0  0  0  0  0  0  0  0  0  0  0  0
   -0.3460  -25.9692   17.9677 N   0  0  0  0  0  0  0  0  0  0  0  0
   -1.3617  -27.0841   17.9480 C   0  0  0  0  0  0  0  0  0  0  0  0
   -2.2544  -27.3565   19.2337 C   0  0  0  0  0  0  0  0  0  0  0  0
   -3.0685  -28.6630   19.3925 C   0  0  0  0  0  0  0  0  0  0  0  0
   -3.0070  -29.7368   18.5023 C   0  0  0  0  0  0  0  0  0  0  0  0
   -3.7040  -30.9427   18.7532 C   0  0  0  0  0  0  0  0  0  0  0  0
   -4.4896  -31.1427   19.8808 C   0  0  0  0  0  0  0  0  0  0  0  0
   -5.0975  -32.3335   20.0749 N   0  0  0  0  0  0  0  0  0  0  0  0
   -5.8524  -32.4765   21.1859 C   0  0  0  0  0  0  0  0  0  0  0  0
   -6.0429  -31.4731   22.1146 C   0  0  0  0  0  0  0  0  0  0  0  0
   -5.4026  -30.2536   21.9097 C   0  0  0  0  0  0  0  0  0  0  0  0
   -4.5970  -30.0639   20.7785 C   0  0  0  0  0  0  0  0  0  0  0  0
   -3.8933  -28.8484   20.5283 C   0  0  0  0  0  0  0  0  0  0  0  0
    2.1824  -24.8950   17.5726 H   0  0  0  0  0  0  0  0  0  0  0  0
    1.1149  -23.6727   18.2656 H   0  0  0  0  0  0  0  0  0  0  0  0
    2.3577  -23.6925   15.4346 H   0  0  0  0  0  0  0  0  0  0  0  0
    1.0929  -22.5652   15.8704 H   0  0  0  0  0  0  0  0  0  0  0  0
    3.8366  -22.6936   17.2517 H   0  0  0  0  0  0  0  0  0  0  0  0
    2.5754  -21.5206   17.6216 H   0  0  0  0  0  0  0  0  0  0  0  0
    2.0224  -19.7984   15.4248 H   0  0  0  0  0  0  0  0  0  0  0  0
    4.0402  -18.3857   14.1915 H   0  0  0  0  0  0  0  0  0  0  0  0
    5.6973  -21.7923   15.9436 H   0  0  0  0  0  0  0  0  0  0  0  0
    0.2585  -25.8636   18.7743 H   0  0  0  0  0  0  0  0  0  0  0  0
   -2.0087  -26.9167   17.0800 H   0  0  0  0  0  0  0  0  0  0  0  0
   -0.7683  -27.9809   17.7382 H   0  0  0  0  0  0  0  0  0  0  0  0
   -2.9518  -26.5142   19.3266 H   0  0  0  0  0  0  0  0  0  0  0  0
   -1.5811  -27.3060   20.0998 H   0  0  0  0  0  0  0  0  0  0  0  0
   -2.4041  -29.6809   17.5992 H   0  0  0  0  0  0  0  0  0  0  0  0
   -3.6136  -31.7595   18.0397 H   0  0  0  0  0  0  0  0  0  0  0  0
   -6.3132  -33.4499   21.3164 H   0  0  0  0  0  0  0  0  0  0  0  0
   -6.6620  -31.6367   22.9887 H   0  0  0  0  0  0  0  0  0  0  0  0
   -5.5345  -29.4621   22.6410 H   0  0  0  0  0  0  0  0  0  0  0  0
   -3.9802  -28.0392   21.2524 H   0  0  0  0  0  0  0  0  0  0  0  0
  1  2  2  0
  2  3  1  0
  3  4  1  0
  4  5  1  0
  5  6  1  0
  6  7  1  0
  7  8  2  0
  8  9  1  0
  9 10  2  0
  2 11  1  0
 11 12  1  0
 12 13  1  0
 13 14  1  0
 14 15  2  0
 15 16  1  0
 16 17  2  0
 17 18  1  0
 18 19  2  0
 19 20  1  0
 20 21  2  0
 21 22  1  0
 22 23  2  0
 10  6  1  0
 23 14  1  0
 22 17  1  0
  3 24  1  0
  3 25  1  0
  4 26  1  0
  4 27  1  0
  5 28  1  0
  5 29  1  0
  7 30  1  0
  8 31  1  0
 10 32  1  0
 11 33  1  0
 12 34  1  0
 12 35  1  0
 13 36  1  0
 13 37  1  0
 15 38  1  0
 16 39  1  0
 19 40  1  0
 20 41  1  0
 21 42  1  0
 23 43  1  0
M  END
>  <Energy>  (526) 
50.306418239847503

>  <compound_id>  (526) 
46508

>  <target_id>  (526) 
1

>  <reference_id>  (526) 
80

>  <inspiration_ids>  (526) 
[80, 68]

>  <energy_score>  (526) 
9.657936096733579

>  <distance_score>  (526) 
13.851834428559277

>  <path>  (526) 
/opt/xchem-fragalysis-2/maxwin/BulkDock/SCRATCH/511023/C46508-P80/C46508-P80.minimised.mol

>  <scratch_subdir>  (526) 
/opt/xchem-fragalysis-2/maxwin/BulkDock/SCRATCH/511023/C46508-P80

>  <fragmenstein_runtime>  (526) 
26.349108934402466

>  <fragmenstein_outcome>  (526) 
too moved

>  <fragmenstein_mode>  (526) 
expansion

>  <fragmenstein_error>  (526) 


$$$$
C46508-P68
     RDKit          3D

 43 45  0  0  0  0  0  0  0  0999 V2000
    3.3063  -12.7862   17.9783 O   0  0  0  0  0  0  0  0  0  0  0  0
    4.0513  -13.5877   18.4652 C   0  0  0  0  0  0  0  0  0  0  0  0
    5.5054  -12.6713   19.3201 C   0  0  0  0  0  0  0  0  0  0  0  0
    6.3840  -10.9767   18.5790 C   0  0  0  0  0  0  0  0  0  0  0  0
    7.9486  -10.4658   17.2423 C   0  0  0  0  0  0  0  0  0  0  0  0
    8.1332   -9.3529   15.6240 N   0  0  0  0  0  0  0  0  0  0  0  0
    7.1227   -7.8344   14.7554 C   0  0  0  0  0  0  0  0  0  0  0  0
    8.3438   -6.7712   14.6705 C   0  0  0  0  0  0  0  0  0  0  0  0
    9.5788   -7.5559   15.2858 N   0  0  0  0  0  0  0  0  0  0  0  0
    9.5344   -8.9350   15.5964 C   0  0  0  0  0  0  0  0  0  0  0  0
    3.9682  -15.2345   18.3365 N   0  0  0  0  0  0  0  0  0  0  0  0
    2.8468  -16.2126   17.6127 C   0  0  0  0  0  0  0  0  0  0  0  0
    3.0773  -17.9423   16.9545 C   0  0  0  0  0  0  0  0  0  0  0  0
    2.5114  -19.5540   17.0849 C   0  0  0  0  0  0  0  0  0  0  0  0
    2.8266  -20.4793   16.0684 C   0  0  0  0  0  0  0  0  0  0  0  0
    2.4619  -21.8907   16.0991 C   0  0  0  0  0  0  0  0  0  0  0  0
    1.8074  -22.5281   17.1595 C   0  0  0  0  0  0  0  0  0  0  0  0
    1.4813  -23.8632   17.1601 N   0  0  0  0  0  0  0  0  0  0  0  0
    0.8794  -24.3940   18.2504 C   0  0  0  0  0  0  0  0  0  0  0  0
    0.5979  -23.6561   19.3769 C   0  0  0  0  0  0  0  0  0  0  0  0
    0.9363  -22.2958   19.3583 C   0  0  0  0  0  0  0  0  0  0  0  0
    1.5163  -21.6786   18.2193 C   0  0  0  0  0  0  0  0  0  0  0  0
    1.7980  -20.2301   18.0991 C   0  0  0  0  0  0  0  0  0  0  0  0
    6.0387  -13.4377   19.8608 H   0  0  0  0  0  0  0  0  0  0  0  0
    5.0874  -12.3192   20.2711 H   0  0  0  0  0  0  0  0  0  0  0  0
    7.0459  -10.8168   19.4789 H   0  0  0  0  0  0  0  0  0  0  0  0
    5.6504  -10.1910   18.5719 H   0  0  0  0  0  0  0  0  0  0  0  0
    8.6870   -9.9428   17.8615 H   0  0  0  0  0  0  0  0  0  0  0  0
    8.6386  -11.2690   16.9119 H   0  0  0  0  0  0  0  0  0  0  0  0
    6.5878   -8.2335   13.8457 H   0  0  0  0  0  0  0  0  0  0  0  0
    8.1154   -5.8970   15.2062 H   0  0  0  0  0  0  0  0  0  0  0  0
   10.3248   -9.6170   15.8823 H   0  0  0  0  0  0  0  0  0  0  0  0
    4.6713  -15.6465   18.9176 H   0  0  0  0  0  0  0  0  0  0  0  0
    2.6131  -15.6354   16.7280 H   0  0  0  0  0  0  0  0  0  0  0  0
    1.9708  -16.2055   18.2645 H   0  0  0  0  0  0  0  0  0  0  0  0
    2.8100  -17.7527   15.9047 H   0  0  0  0  0  0  0  0  0  0  0  0
    4.1603  -18.0320   16.8500 H   0  0  0  0  0  0  0  0  0  0  0  0
    3.3441  -20.1194   15.1785 H   0  0  0  0  0  0  0  0  0  0  0  0
    2.7236  -22.4927   15.2304 H   0  0  0  0  0  0  0  0  0  0  0  0
    0.6467  -25.4517   18.1865 H   0  0  0  0  0  0  0  0  0  0  0  0
    0.1413  -24.1096   20.2477 H   0  0  0  0  0  0  0  0  0  0  0  0
    0.7364  -21.6928   20.2419 H   0  0  0  0  0  0  0  0  0  0  0  0
    1.3952  -19.6471   18.8863 H   0  0  0  0  0  0  0  0  0  0  0  0
  1  2  2  0
  2  3  1  0
  3  4  1  0
  4  5  1  0
  5  6  1  0
  6  7  1  0
  7  8  2  0
  8  9  1  0
  9 10  2  0
  2 11  1  0
 11 12  1  0
 12 13  1  0
 13 14  1  0
 14 15  2  0
 15 16  1  0
 16 17  2  0
 17 18  1  0
 18 19  2  0
 19 20  1  0
 20 21  2  0
 21 22  1  0
 22 23  2  0
 10  6  1  0
 23 14  1  0
 22 17  1  0
  3 24  1  0
  3 25  1  0
  4 26  1  0
  4 27  1  0
  5 28  1  0
  5 29  1  0
  7 30  1  0
  8 31  1  0
 10 32  1  0
 11 33  1  0
 12 34  1  0
 12 35  1  0
 13 36  1  0
 13 37  1  0
 15 38  1  0
 16 39  1  0
 19 40  1  0
 20 41  1  0
 21 42  1  0
 23 43  1  0
M  END
>  <Energy>  (527) 
683.28235479004081

>  <compound_id>  (527) 
46508

>  <target_id>  (527) 
1

>  <reference_id>  (527) 
68

>  <inspiration_ids>  (527) 
[80, 68]

>  <energy_score>  (527) 
642.6338726469027

>  <distance_score>  (527) 
17.09512731873722

>  <path>  (527) 
/opt/xchem-fragalysis-2/maxwin/BulkDock/SCRATCH/511023/C46508-P68/C46508-P68.minimised.mol

>  <scratch_subdir>  (527) 
/opt/xchem-fragalysis-2/maxwin/BulkDock/SCRATCH/511023/C46508-P68

>  <fragmenstein_runtime>  (527) 
19.841602563858032

>  <fragmenstein_outcome>  (527) 
too moved

>  <fragmenstein_mode>  (527) 
expansion

>  <fragmenstein_error>  (527) 


$$$$
C46509-P80
     RDKit          3D

 44 46  0  0  0  0  0  0  0  0999 V2000
    3.8910  -17.7819   25.7631 C   0  0  0  0  0  0  0  0  0  0  0  0
    3.1230  -19.0472   25.2884 C   0  0  0  0  0  0  0  0  0  0  0  0
    3.3289  -20.1340   26.3627 C   0  0  0  0  0  0  0  0  0  0  0  0
    1.6340  -18.6344   25.2424 C   0  0  0  0  0  0  0  0  0  0  0  0
    3.6375  -19.5370   23.9853 N   0  0  0  0  0  0  0  0  0  0  0  0
    4.8953  -19.2339   23.4799 C   0  0  0  0  0  0  0  0  0  0  0  0
    5.0195  -19.9624   22.3253 C   0  0  0  0  0  0  0  0  0  0  0  0
    3.9114  -20.7505   22.1324 N   0  0  0  0  0  0  0  0  0  0  0  0
    3.1018  -20.5187   23.1425 C   0  0  0  0  0  0  0  0  0  0  0  0
    1.5334  -21.3026   23.3889 S   0  0  0  0  0  0  0  0  0  0  0  0
    1.5885  -23.0840   22.8611 C   0  0  0  0  0  0  0  0  0  0  0  0
    0.4986  -23.9673   23.6543 C   0  0  0  0  0  0  0  0  0  0  0  0
    0.2905  -23.6908   24.8083 O   0  0  0  0  0  0  0  0  0  0  0  0
   -0.0646  -25.0444   22.8035 N   0  0  0  0  0  0  0  0  0  0  0  0
   -0.9520  -26.1291   23.1231 C   0  0  0  0  0  0  0  0  0  0  0  0
   -1.5453  -26.2889   24.3739 C   0  0  0  0  0  0  0  0  0  0  0  0
   -2.3930  -27.3929   24.6628 C   0  0  0  0  0  0  0  0  0  0  0  0
   -2.6975  -28.3827   23.7357 C   0  0  0  0  0  0  0  0  0  0  0  0
   -3.4933  -29.4224   24.0787 N   0  0  0  0  0  0  0  0  0  0  0  0
   -3.7779  -30.3520   23.1381 C   0  0  0  0  0  0  0  0  0  0  0  0
   -3.2860  -30.2962   21.8492 C   0  0  0  0  0  0  0  0  0  0  0  0
   -2.4542  -29.2251   21.5091 C   0  0  0  0  0  0  0  0  0  0  0  0
   -2.1355  -28.2327   22.4557 C   0  0  0  0  0  0  0  0  0  0  0  0
   -1.2770  -27.1139   22.1666 C   0  0  0  0  0  0  0  0  0  0  0  0
    3.4666  -17.3833   26.6925 H   0  0  0  0  0  0  0  0  0  0  0  0
    3.8501  -16.9847   25.0121 H   0  0  0  0  0  0  0  0  0  0  0  0
    4.9441  -17.9971   25.9768 H   0  0  0  0  0  0  0  0  0  0  0  0
    4.3854  -20.4157   26.4434 H   0  0  0  0  0  0  0  0  0  0  0  0
    2.7671  -21.0464   26.1391 H   0  0  0  0  0  0  0  0  0  0  0  0
    3.0008  -19.7823   27.3476 H   0  0  0  0  0  0  0  0  0  0  0  0
    1.3886  -18.1001   24.3209 H   0  0  0  0  0  0  0  0  0  0  0  0
    0.9592  -19.4895   25.3304 H   0  0  0  0  0  0  0  0  0  0  0  0
    1.3742  -17.9794   26.0828 H   0  0  0  0  0  0  0  0  0  0  0  0
    5.5898  -18.5723   23.9723 H   0  0  0  0  0  0  0  0  0  0  0  0
    5.8475  -19.9849   21.6295 H   0  0  0  0  0  0  0  0  0  0  0  0
    2.5739  -23.5037   23.0836 H   0  0  0  0  0  0  0  0  0  0  0  0
    1.4000  -23.1303   21.7855 H   0  0  0  0  0  0  0  0  0  0  0  0
    0.3980  -25.0322   21.9024 H   0  0  0  0  0  0  0  0  0  0  0  0
   -1.3591  -25.5667   25.1665 H   0  0  0  0  0  0  0  0  0  0  0  0
   -2.8214  -27.4726   25.6604 H   0  0  0  0  0  0  0  0  0  0  0  0
   -4.4347  -31.1562   23.4589 H   0  0  0  0  0  0  0  0  0  0  0  0
   -3.5445  -31.0629   21.1279 H   0  0  0  0  0  0  0  0  0  0  0  0
   -2.0572  -29.1675   20.4989 H   0  0  0  0  0  0  0  0  0  0  0  0
   -0.8562  -27.0359   21.1658 H   0  0  0  0  0  0  0  0  0  0  0  0
  1  2  1  0
  2  3  1  0
  2  4  1  0
  2  5  1  0
  5  6  1  0
  6  7  2  0
  7  8  1  0
  8  9  2  0
  9 10  1  0
 10 11  1  0
 11 12  1  0
 12 13  2  0
 12 14  1  0
 14 15  1  0
 15 16  2  0
 16 17  1  0
 17 18  2  0
 18 19  1  0
 19 20  2  0
 20 21  1  0
 21 22  2  0
 22 23  1  0
 23 24  2  0
  9  5  1  0
 24 15  1  0
 23 18  1  0
  1 25  1  0
  1 26  1  0
  1 27  1  0
  3 28  1  0
  3 29  1  0
  3 30  1  0
  4 31  1  0
  4 32  1  0
  4 33  1  0
  6 34  1  0
  7 35  1  0
 11 36  1  0
 11 37  1  0
 14 38  1  0
 16 39  1  0
 17 40  1  0
 20 41  1  0
 21 42  1  0
 22 43  1  0
 24 44  1  0
M  END
>  <Energy>  (528) 
62.945455984955302

>  <compound_id>  (528) 
46509

>  <target_id>  (528) 
1

>  <reference_id>  (528) 
80

>  <inspiration_ids>  (528) 
[80, 68]

>  <energy_score>  (528) 
-41.70392955052364

>  <distance_score>  (528) 
15.472524231063751

>  <path>  (528) 
/opt/xchem-fragalysis-2/maxwin/BulkDock/SCRATCH/511023/C46509-P80/C46509-P80.minimised.mol

>  <scratch_subdir>  (528) 
/opt/xchem-fragalysis-2/maxwin/BulkDock/SCRATCH/511023/C46509-P80

>  <fragmenstein_runtime>  (528) 
23.33308482170105

>  <fragmenstein_outcome>  (528) 
too moved

>  <fragmenstein_mode>  (528) 
expansion

>  <fragmenstein_error>  (528) 


$$$$
C46509-P68
     RDKit          3D

 44 46  0  0  0  0  0  0  0  0999 V2000
    5.4708  -18.5805   13.1849 C   0  0  0  0  0  0  0  0  0  0  0  0
    4.7370  -19.5725   14.1315 C   0  0  0  0  0  0  0  0  0  0  0  0
    5.7813  -20.6294   14.5436 C   0  0  0  0  0  0  0  0  0  0  0  0
    3.6256  -20.2095   13.2670 C   0  0  0  0  0  0  0  0  0  0  0  0
    4.1885  -18.8915   15.3279 N   0  0  0  0  0  0  0  0  0  0  0  0
    4.5014  -17.5978   15.7049 C   0  0  0  0  0  0  0  0  0  0  0  0
    3.6064  -17.2750   16.6882 C   0  0  0  0  0  0  0  0  0  0  0  0
    2.9054  -18.3972   17.0784 N   0  0  0  0  0  0  0  0  0  0  0  0
    3.2921  -19.3808   16.2875 C   0  0  0  0  0  0  0  0  0  0  0  0
    2.8804  -21.1061   16.4227 S   0  0  0  0  0  0  0  0  0  0  0  0
    1.7144  -21.5125   17.8073 C   0  0  0  0  0  0  0  0  0  0  0  0
    1.1513  -23.0437   17.6990 C   0  0  0  0  0  0  0  0  0  0  0  0
    1.5322  -23.7414   16.7954 O   0  0  0  0  0  0  0  0  0  0  0  0
    0.1928  -23.3263   18.7991 N   0  0  0  0  0  0  0  0  0  0  0  0
   -0.4913  -24.5427   19.1672 C   0  0  0  0  0  0  0  0  0  0  0  0
   -1.3125  -24.5677   20.3047 C   0  0  0  0  0  0  0  0  0  0  0  0
   -1.9733  -25.7519   20.7415 C   0  0  0  0  0  0  0  0  0  0  0  0
   -1.8480  -26.9704   20.0854 C   0  0  0  0  0  0  0  0  0  0  0  0
   -2.4467  -28.0872   20.5700 N   0  0  0  0  0  0  0  0  0  0  0  0
   -2.2534  -29.2480   19.9016 C   0  0  0  0  0  0  0  0  0  0  0  0
   -1.5156  -29.3467   18.7407 C   0  0  0  0  0  0  0  0  0  0  0  0
   -0.9124  -28.1886   18.2477 C   0  0  0  0  0  0  0  0  0  0  0  0
   -1.0528  -26.9639   18.9220 C   0  0  0  0  0  0  0  0  0  0  0  0
   -0.4000  -25.7589   18.4746 C   0  0  0  0  0  0  0  0  0  0  0  0
    4.8154  -17.7580   12.8761 H   0  0  0  0  0  0  0  0  0  0  0  0
    6.3617  -18.1543   13.6589 H   0  0  0  0  0  0  0  0  0  0  0  0
    5.8159  -19.0825   12.2728 H   0  0  0  0  0  0  0  0  0  0  0  0
    6.2689  -21.0647   13.6634 H   0  0  0  0  0  0  0  0  0  0  0  0
    6.5623  -20.1861   15.1727 H   0  0  0  0  0  0  0  0  0  0  0  0
    5.3459  -21.4599   15.1040 H   0  0  0  0  0  0  0  0  0  0  0  0
    2.8125  -19.4997   13.0798 H   0  0  0  0  0  0  0  0  0  0  0  0
    4.0165  -20.5298   12.2936 H   0  0  0  0  0  0  0  0  0  0  0  0
    3.1907  -21.1034   13.7177 H   0  0  0  0  0  0  0  0  0  0  0  0
    5.2628  -17.0222   15.2110 H   0  0  0  0  0  0  0  0  0  0  0  0
    3.4664  -16.3276   17.1922 H   0  0  0  0  0  0  0  0  0  0  0  0
    0.8717  -20.8206   17.8106 H   0  0  0  0  0  0  0  0  0  0  0  0
    2.2446  -21.4368   18.7569 H   0  0  0  0  0  0  0  0  0  0  0  0
    0.1701  -22.5344   19.4321 H   0  0  0  0  0  0  0  0  0  0  0  0
   -1.4490  -23.6644   20.8959 H   0  0  0  0  0  0  0  0  0  0  0  0
   -2.5830  -25.7104   21.6419 H   0  0  0  0  0  0  0  0  0  0  0  0
   -2.7102  -30.1273   20.3398 H   0  0  0  0  0  0  0  0  0  0  0  0
   -1.3916  -30.3009   18.2412 H   0  0  0  0  0  0  0  0  0  0  0  0
   -0.3119  -28.2493   17.3427 H   0  0  0  0  0  0  0  0  0  0  0  0
    0.2170  -25.8064   17.5774 H   0  0  0  0  0  0  0  0  0  0  0  0
  1  2  1  0
  2  3  1  0
  2  4  1  0
  2  5  1  0
  5  6  1  0
  6  7  2  0
  7  8  1  0
  8  9  2  0
  9 10  1  0
 10 11  1  0
 11 12  1  0
 12 13  2  0
 12 14  1  0
 14 15  1  0
 15 16  2  0
 16 17  1  0
 17 18  2  0
 18 19  1  0
 19 20  2  0
 20 21  1  0
 21 22  2  0
 22 23  1  0
 23 24  2  0
  9  5  1  0
 24 15  1  0
 23 18  1  0
  1 25  1  0
  1 26  1  0
  1 27  1  0
  3 28  1  0
  3 29  1  0
  3 30  1  0
  4 31  1  0
  4 32  1  0
  4 33  1  0
  6 34  1  0
  7 35  1  0
 11 36  1  0
 11 37  1  0
 14 38  1  0
 16 39  1  0
 17 40  1  0
 20 41  1  0
 21 42  1  0
 22 43  1  0
 24 44  1  0
M  END
>  <Energy>  (529) 
67.031879323718741

>  <compound_id>  (529) 
46509

>  <target_id>  (529) 
1

>  <reference_id>  (529) 
68

>  <inspiration_ids>  (529) 
[80, 68]

>  <energy_score>  (529) 
-37.617506211752584

>  <distance_score>  (529) 
15.403283013945238

>  <path>  (529) 
/opt/xchem-fragalysis-2/maxwin/BulkDock/SCRATCH/511023/C46509-P68/C46509-P68.minimised.mol

>  <scratch_subdir>  (529) 
/opt/xchem-fragalysis-2/maxwin/BulkDock/SCRATCH/511023/C46509-P68

>  <fragmenstein_runtime>  (529) 
38.93274426460266

>  <fragmenstein_outcome>  (529) 
too moved

>  <fragmenstein_mode>  (529) 
expansion

>  <fragmenstein_error>  (529) 


$$$$
C46510-P80
     RDKit          3D

 35 37  0  0  0  0  0  0  0  0999 V2000
    4.4482  -12.9733   20.3389 C   0  0  0  0  0  0  0  0  0  0  0  0
    3.5969  -13.7138   19.3964 N   0  0  0  0  0  0  0  0  0  0  0  0
    3.7033  -13.4624   18.1820 C   0  0  0  0  0  0  0  0  0  0  0  0
    3.9819  -14.7898   17.9570 C   0  0  0  0  0  0  0  0  0  0  0  0
    2.7789  -15.3587   18.0482 N   0  0  0  0  0  0  0  0  0  0  0  0
    2.3600  -14.8777   19.2199 C   0  0  0  0  0  0  0  0  0  0  0  0
    0.7296  -16.1602   20.3097 S   0  0  0  0  0  0  0  0  0  0  0  0
   -0.4594  -17.6294   20.0888 C   0  0  0  0  0  0  0  0  0  0  0  0
   -0.3364  -19.2274   19.8237 C   0  0  0  0  0  0  0  0  0  0  0  0
    0.5130  -19.7024   19.1185 O   0  0  0  0  0  0  0  0  0  0  0  0
   -1.5153  -19.8868   20.5337 N   0  0  0  0  0  0  0  0  0  0  0  0
   -1.8992  -21.2858   20.6433 C   0  0  0  0  0  0  0  0  0  0  0  0
   -3.0340  -21.5700   21.4355 C   0  0  0  0  0  0  0  0  0  0  0  0
   -3.5407  -22.8845   21.6466 C   0  0  0  0  0  0  0  0  0  0  0  0
   -2.9586  -24.0075   21.0867 C   0  0  0  0  0  0  0  0  0  0  0  0
   -3.4839  -25.2369   21.3316 N   0  0  0  0  0  0  0  0  0  0  0  0
   -2.8943  -26.3068   20.7576 C   0  0  0  0  0  0  0  0  0  0  0  0
   -1.7871  -26.1997   19.9400 C   0  0  0  0  0  0  0  0  0  0  0  0
   -1.2522  -24.9228   19.7031 C   0  0  0  0  0  0  0  0  0  0  0  0
   -1.8271  -23.7716   20.2758 C   0  0  0  0  0  0  0  0  0  0  0  0
   -1.3131  -22.4176   20.0631 C   0  0  0  0  0  0  0  0  0  0  0  0
    4.9834  -12.1708   19.8575 H   0  0  0  0  0  0  0  0  0  0  0  0
    5.3748  -13.4889   20.5247 H   0  0  0  0  0  0  0  0  0  0  0  0
    3.8940  -12.7502   21.2309 H   0  0  0  0  0  0  0  0  0  0  0  0
    3.8806  -12.4334   17.8802 H   0  0  0  0  0  0  0  0  0  0  0  0
    4.8207  -15.2766   17.4918 H   0  0  0  0  0  0  0  0  0  0  0  0
   -0.6689  -17.6994   21.1506 H   0  0  0  0  0  0  0  0  0  0  0  0
   -1.4248  -17.3032   19.6758 H   0  0  0  0  0  0  0  0  0  0  0  0
   -1.9822  -19.2028   21.1112 H   0  0  0  0  0  0  0  0  0  0  0  0
   -3.5692  -20.7539   21.9180 H   0  0  0  0  0  0  0  0  0  0  0  0
   -4.4206  -23.0145   22.2733 H   0  0  0  0  0  0  0  0  0  0  0  0
   -3.3488  -27.2680   20.9774 H   0  0  0  0  0  0  0  0  0  0  0  0
   -1.3391  -27.0807   19.4941 H   0  0  0  0  0  0  0  0  0  0  0  0
   -0.3773  -24.8276   19.0631 H   0  0  0  0  0  0  0  0  0  0  0  0
   -0.4344  -22.2851   19.4316 H   0  0  0  0  0  0  0  0  0  0  0  0
  1  2  1  0
  2  3  1  0
  3  4  2  0
  4  5  1  0
  5  6  2  0
  6  7  1  0
  7  8  1  0
  8  9  1  0
  9 10  2  0
  9 11  1  0
 11 12  1  0
 12 13  2  0
 13 14  1  0
 14 15  2  0
 15 16  1  0
 16 17  2  0
 17 18  1  0
 18 19  2  0
 19 20  1  0
 20 21  2  0
  6  2  1  0
 21 12  1  0
 20 15  1  0
  1 22  1  0
  1 23  1  0
  1 24  1  0
  3 25  1  0
  4 26  1  0
  8 27  1  0
  8 28  1  0
 11 29  1  0
 13 30  1  0
 14 31  1  0
 17 32  1  0
 18 33  1  0
 19 34  1  0
 21 35  1  0
M  END
>  <Energy>  (530) 
364.50258678559419

>  <compound_id>  (530) 
46510

>  <target_id>  (530) 
1

>  <reference_id>  (530) 
80

>  <inspiration_ids>  (530) 
[80, 68]

>  <energy_score>  (530) 
319.1123458160185

>  <distance_score>  (530) 
15.26737067342843

>  <path>  (530) 
/opt/xchem-fragalysis-2/maxwin/BulkDock/SCRATCH/511023/C46510-P80/C46510-P80.minimised.mol

>  <scratch_subdir>  (530) 
/opt/xchem-fragalysis-2/maxwin/BulkDock/SCRATCH/511023/C46510-P80

>  <fragmenstein_runtime>  (530) 
14.271678686141968

>  <fragmenstein_outcome>  (530) 
too moved

>  <fragmenstein_mode>  (530) 
expansion

>  <fragmenstein_error>  (530) 


$$$$
C46510-P68
     RDKit          3D

 35 37  0  0  0  0  0  0  0  0999 V2000
    3.6747   -9.5403   17.9374 C   0  0  0  0  0  0  0  0  0  0  0  0
    4.1003  -11.2486   17.2570 N   0  0  0  0  0  0  0  0  0  0  0  0
    3.9356  -11.3168   15.8438 C   0  0  0  0  0  0  0  0  0  0  0  0
    3.0287  -11.3085   16.8097 C   0  0  0  0  0  0  0  0  0  0  0  0
    2.7972  -12.4228   17.7186 N   0  0  0  0  0  0  0  0  0  0  0  0
    3.8730  -12.7544   18.1866 C   0  0  0  0  0  0  0  0  0  0  0  0
    3.9265  -14.6996   18.2222 S   0  0  0  0  0  0  0  0  0  0  0  0
    2.7610  -16.0224   17.5924 C   0  0  0  0  0  0  0  0  0  0  0  0
    3.1930  -17.7585   17.3105 C   0  0  0  0  0  0  0  0  0  0  0  0
    4.2236  -18.0340   16.7362 O   0  0  0  0  0  0  0  0  0  0  0  0
    2.0221  -18.6939   17.8101 N   0  0  0  0  0  0  0  0  0  0  0  0
    1.8002  -20.1545   17.6361 C   0  0  0  0  0  0  0  0  0  0  0  0
    0.4440  -20.5392   17.4258 C   0  0  0  0  0  0  0  0  0  0  0  0
   -0.1107  -21.8264   17.7069 C   0  0  0  0  0  0  0  0  0  0  0  0
    0.6310  -22.8474   18.2614 C   0  0  0  0  0  0  0  0  0  0  0  0
    0.0316  -24.0334   18.5648 N   0  0  0  0  0  0  0  0  0  0  0  0
    0.7857  -25.0074   19.1085 C   0  0  0  0  0  0  0  0  0  0  0  0
    2.1298  -24.8400   19.3695 C   0  0  0  0  0  0  0  0  0  0  0  0
    2.7308  -23.6039   19.0584 C   0  0  0  0  0  0  0  0  0  0  0  0
    1.9940  -22.5462   18.4870 C   0  0  0  0  0  0  0  0  0  0  0  0
    2.5610  -21.2102   18.1694 C   0  0  0  0  0  0  0  0  0  0  0  0
    2.7699   -9.7219   18.5163 H   0  0  0  0  0  0  0  0  0  0  0  0
    4.6120   -9.2698   18.4447 H   0  0  0  0  0  0  0  0  0  0  0  0
    3.1992   -8.9005   17.2172 H   0  0  0  0  0  0  0  0  0  0  0  0
    4.1723  -10.5988   15.0730 H   0  0  0  0  0  0  0  0  0  0  0  0
    2.4091  -10.4896   17.0465 H   0  0  0  0  0  0  0  0  0  0  0  0
    1.8905  -16.0296   18.2448 H   0  0  0  0  0  0  0  0  0  0  0  0
    2.5029  -15.6955   16.6029 H   0  0  0  0  0  0  0  0  0  0  0  0
    1.3548  -18.1490   18.3229 H   0  0  0  0  0  0  0  0  0  0  0  0
   -0.2638  -19.8029   17.0420 H   0  0  0  0  0  0  0  0  0  0  0  0
   -1.1673  -21.9929   17.5057 H   0  0  0  0  0  0  0  0  0  0  0  0
    0.2714  -25.9374   19.3267 H   0  0  0  0  0  0  0  0  0  0  0  0
    2.7136  -25.6433   19.8054 H   0  0  0  0  0  0  0  0  0  0  0  0
    3.7900  -23.4689   19.2675 H   0  0  0  0  0  0  0  0  0  0  0  0
    3.5967  -21.0158   18.4449 H   0  0  0  0  0  0  0  0  0  0  0  0
  1  2  1  0
  2  3  1  0
  3  4  2  0
  4  5  1  0
  5  6  2  0
  6  7  1  0
  7  8  1  0
  8  9  1  0
  9 10  2  0
  9 11  1  0
 11 12  1  0
 12 13  2  0
 13 14  1  0
 14 15  2  0
 15 16  1  0
 16 17  2  0
 17 18  1  0
 18 19  2  0
 19 20  1  0
 20 21  2  0
  6  2  1  0
 21 12  1  0
 20 15  1  0
  1 22  1  0
  1 23  1  0
  1 24  1  0
  3 25  1  0
  4 26  1  0
  8 27  1  0
  8 28  1  0
 11 29  1  0
 13 30  1  0
 14 31  1  0
 17 32  1  0
 18 33  1  0
 19 34  1  0
 21 35  1  0
M  END
>  <Energy>  (531) 
528.07764815311668

>  <compound_id>  (531) 
46510

>  <target_id>  (531) 
1

>  <reference_id>  (531) 
68

>  <inspiration_ids>  (531) 
[80, 68]

>  <energy_score>  (531) 
482.6874071835372

>  <distance_score>  (531) 
16.986794493538994

>  <path>  (531) 
/opt/xchem-fragalysis-2/maxwin/BulkDock/SCRATCH/511023/C46510-P68/C46510-P68.minimised.mol

>  <scratch_subdir>  (531) 
/opt/xchem-fragalysis-2/maxwin/BulkDock/SCRATCH/511023/C46510-P68

>  <fragmenstein_runtime>  (531) 
31.172441005706787

>  <fragmenstein_outcome>  (531) 
too moved

>  <fragmenstein_mode>  (531) 
expansion

>  <fragmenstein_error>  (531) 


$$$$
C46511-P80
     RDKit          3D

 32 34  0  0  0  0  0  0  0  0999 V2000
   -4.0639  -17.0263   17.5377 C   0  0  0  0  0  0  0  0  0  0  0  0
   -3.2786  -17.0971   18.7477 N   0  0  0  0  0  0  0  0  0  0  0  0
   -2.7026  -16.0204   19.3770 C   0  0  0  0  0  0  0  0  0  0  0  0
   -2.1806  -16.5457   20.5317 C   0  0  0  0  0  0  0  0  0  0  0  0
   -2.4235  -17.8940   20.6243 N   0  0  0  0  0  0  0  0  0  0  0  0
   -3.0998  -18.2158   19.5446 C   0  0  0  0  0  0  0  0  0  0  0  0
   -3.7884  -19.7899   19.1154 S   0  0  0  0  0  0  0  0  0  0  0  0
   -3.5231  -21.0040   20.4941 C   0  0  0  0  0  0  0  0  0  0  0  0
   -3.9009  -22.5155   20.0824 C   0  0  0  0  0  0  0  0  0  0  0  0
   -4.0984  -22.7919   18.9290 O   0  0  0  0  0  0  0  0  0  0  0  0
   -3.9425  -23.3621   21.2961 N   0  0  0  0  0  0  0  0  0  0  0  0
   -4.1369  -24.7787   21.4506 C   0  0  0  0  0  0  0  0  0  0  0  0
   -4.0728  -25.2907   22.7942 C   0  0  0  0  0  0  0  0  0  0  0  0
   -4.2015  -26.6615   23.1696 C   0  0  0  0  0  0  0  0  0  0  0  0
   -4.4150  -27.5649   22.1075 C   0  0  0  0  0  0  0  0  0  0  0  0
   -4.5709  -28.8925   22.1957 N   0  0  0  0  0  0  0  0  0  0  0  0
   -4.8560  -29.5314   20.6949 S   0  0  0  0  0  0  0  0  0  0  0  0
   -4.7268  -28.0524   19.8322 C   0  0  0  0  0  0  0  0  0  0  0  0
   -4.4956  -27.0397   20.7366 C   0  0  0  0  0  0  0  0  0  0  0  0
   -4.3755  -25.6682   20.3711 C   0  0  0  0  0  0  0  0  0  0  0  0
   -3.9226  -16.0472   17.0720 H   0  0  0  0  0  0  0  0  0  0  0  0
   -3.7352  -17.8069   16.8478 H   0  0  0  0  0  0  0  0  0  0  0  0
   -5.1165  -17.1594   17.8008 H   0  0  0  0  0  0  0  0  0  0  0  0
   -2.7347  -15.0192   18.9730 H   0  0  0  0  0  0  0  0  0  0  0  0
   -1.6738  -16.0370   21.3323 H   0  0  0  0  0  0  0  0  0  0  0  0
   -4.1588  -20.7050   21.3330 H   0  0  0  0  0  0  0  0  0  0  0  0
   -2.4784  -20.9984   20.8086 H   0  0  0  0  0  0  0  0  0  0  0  0
   -3.6413  -22.8145   22.0938 H   0  0  0  0  0  0  0  0  0  0  0  0
   -3.8982  -24.5845   23.6076 H   0  0  0  0  0  0  0  0  0  0  0  0
   -4.1392  -26.9931   24.1979 H   0  0  0  0  0  0  0  0  0  0  0  0
   -4.8459  -28.0103   18.7598 H   0  0  0  0  0  0  0  0  0  0  0  0
   -4.4415  -25.3248   19.3451 H   0  0  0  0  0  0  0  0  0  0  0  0
  1  2  1  0
  2  3  1  0
  3  4  2  0
  4  5  1  0
  5  6  2  0
  6  7  1  0
  7  8  1  0
  8  9  1  0
  9 10  2  0
  9 11  1  0
 11 12  1  0
 12 13  1  0
 13 14  2  0
 14 15  1  0
 15 16  2  0
 16 17  1  0
 17 18  1  0
 18 19  2  0
 19 20  1  0
  6  2  1  0
 20 12  2  0
 19 15  1  0
  1 21  1  0
  1 22  1  0
  1 23  1  0
  3 24  1  0
  4 25  1  0
  8 26  1  0
  8 27  1  0
 11 28  1  0
 13 29  1  0
 14 30  1  0
 18 31  1  0
 20 32  1  0
M  END
>  <Energy>  (532) 
32.330344247605282

>  <compound_id>  (532) 
46511

>  <target_id>  (532) 
1

>  <reference_id>  (532) 
80

>  <inspiration_ids>  (532) 
[80, 68]

>  <energy_score>  (532) 
-33.347852195581936

>  <distance_score>  (532) 
15.396436134680746

>  <path>  (532) 
/opt/xchem-fragalysis-2/maxwin/BulkDock/SCRATCH/511023/C46511-P80/C46511-P80.minimised.mol

>  <scratch_subdir>  (532) 
/opt/xchem-fragalysis-2/maxwin/BulkDock/SCRATCH/511023/C46511-P80

>  <fragmenstein_runtime>  (532) 
10.602400064468384

>  <fragmenstein_outcome>  (532) 
too moved

>  <fragmenstein_mode>  (532) 
expansion

>  <fragmenstein_error>  (532) 


$$$$
C46511-P68
     RDKit          3D

 32 34  0  0  0  0  0  0  0  0999 V2000
    4.6233  -19.6511   14.3679 C   0  0  0  0  0  0  0  0  0  0  0  0
    4.0857  -18.8806   15.4630 N   0  0  0  0  0  0  0  0  0  0  0  0
    4.4549  -17.5929   15.7644 C   0  0  0  0  0  0  0  0  0  0  0  0
    3.5749  -17.2033   16.7409 C   0  0  0  0  0  0  0  0  0  0  0  0
    2.7868  -18.2768   17.1385 N   0  0  0  0  0  0  0  0  0  0  0  0
    3.1050  -19.2880   16.3545 C   0  0  0  0  0  0  0  0  0  0  0  0
    2.4576  -20.9438   16.3020 S   0  0  0  0  0  0  0  0  0  0  0  0
    1.3569  -21.3774   17.7425 C   0  0  0  0  0  0  0  0  0  0  0  0
    0.7953  -22.9156   17.6516 C   0  0  0  0  0  0  0  0  0  0  0  0
    1.1293  -23.6051   16.7232 O   0  0  0  0  0  0  0  0  0  0  0  0
   -0.0967  -23.2127   18.8055 N   0  0  0  0  0  0  0  0  0  0  0  0
   -0.8123  -24.4214   19.1670 C   0  0  0  0  0  0  0  0  0  0  0  0
   -1.5551  -24.4100   20.4037 C   0  0  0  0  0  0  0  0  0  0  0  0
   -2.3086  -25.5041   20.9463 C   0  0  0  0  0  0  0  0  0  0  0  0
   -2.3017  -26.6897   20.1803 C   0  0  0  0  0  0  0  0  0  0  0  0
   -2.9033  -27.8526   20.4711 N   0  0  0  0  0  0  0  0  0  0  0  0
   -2.5955  -28.9637   19.2788 S   0  0  0  0  0  0  0  0  0  0  0  0
   -1.6490  -27.9286   18.2936 C   0  0  0  0  0  0  0  0  0  0  0  0
   -1.5582  -26.7013   18.9122 C   0  0  0  0  0  0  0  0  0  0  0  0
   -0.8192  -25.6026   18.3778 C   0  0  0  0  0  0  0  0  0  0  0  0
    5.1321  -20.5291   14.7735 H   0  0  0  0  0  0  0  0  0  0  0  0
    5.3400  -19.0413   13.8109 H   0  0  0  0  0  0  0  0  0  0  0  0
    3.8045  -19.9406   13.7045 H   0  0  0  0  0  0  0  0  0  0  0  0
    5.2444  -17.0898   15.2320 H   0  0  0  0  0  0  0  0  0  0  0  0
    3.4835  -16.2399   17.2264 H   0  0  0  0  0  0  0  0  0  0  0  0
    0.4972  -20.7017   17.7479 H   0  0  0  0  0  0  0  0  0  0  0  0
    1.9232  -21.2814   18.6713 H   0  0  0  0  0  0  0  0  0  0  0  0
   -0.0895  -22.4245   19.4435 H   0  0  0  0  0  0  0  0  0  0  0  0
   -1.5440  -23.4933   20.9970 H   0  0  0  0  0  0  0  0  0  0  0  0
   -2.8371  -25.4304   21.8880 H   0  0  0  0  0  0  0  0  0  0  0  0
   -1.2217  -28.2669   17.3609 H   0  0  0  0  0  0  0  0  0  0  0  0
   -0.2801  -25.6632   17.4388 H   0  0  0  0  0  0  0  0  0  0  0  0
  1  2  1  0
  2  3  1  0
  3  4  2  0
  4  5  1  0
  5  6  2  0
  6  7  1  0
  7  8  1  0
  8  9  1  0
  9 10  2  0
  9 11  1  0
 11 12  1  0
 12 13  1  0
 13 14  2  0
 14 15  1  0
 15 16  2  0
 16 17  1  0
 17 18  1  0
 18 19  2  0
 19 20  1  0
  6  2  1  0
 20 12  2  0
 19 15  1  0
  1 21  1  0
  1 22  1  0
  1 23  1  0
  3 24  1  0
  4 25  1  0
  8 26  1  0
  8 27  1  0
 11 28  1  0
 13 29  1  0
 14 30  1  0
 18 31  1  0
 20 32  1  0
M  END
>  <Energy>  (533) 
39.466736835303585

>  <compound_id>  (533) 
46511

>  <target_id>  (533) 
1

>  <reference_id>  (533) 
68

>  <inspiration_ids>  (533) 
[80, 68]

>  <energy_score>  (533) 
-26.211459607883285

>  <distance_score>  (533) 
15.320849381686115

>  <path>  (533) 
/opt/xchem-fragalysis-2/maxwin/BulkDock/SCRATCH/511023/C46511-P68/C46511-P68.minimised.mol

>  <scratch_subdir>  (533) 
/opt/xchem-fragalysis-2/maxwin/BulkDock/SCRATCH/511023/C46511-P68

>  <fragmenstein_runtime>  (533) 
18.98491096496582

>  <fragmenstein_outcome>  (533) 
too moved

>  <fragmenstein_mode>  (533) 
expansion

>  <fragmenstein_error>  (533) 


$$$$
C46512-P80
     RDKit          3D

 41 43  0  0  0  0  0  0  0  0999 V2000
    4.7456  -12.6957   19.2186 C   0  0  0  0  0  0  0  0  0  0  0  0
    4.8740  -13.9053   18.4272 N   0  0  0  0  0  0  0  0  0  0  0  0
    6.0649  -14.0897   17.7633 C   0  0  0  0  0  0  0  0  0  0  0  0
    5.9049  -14.8158   16.7037 N   0  0  0  0  0  0  0  0  0  0  0  0
    4.5913  -15.2110   16.7787 C   0  0  0  0  0  0  0  0  0  0  0  0
    3.8770  -14.9911   18.0398 C   0  0  0  0  0  0  0  0  0  0  0  0
    2.0735  -15.2317   18.6105 C   0  0  0  0  0  0  0  0  0  0  0  0
    2.4536  -14.4284   19.7045 O   0  0  0  0  0  0  0  0  0  0  0  0
    0.6750  -16.2806   19.8454 C   0  0  0  0  0  0  0  0  0  0  0  0
    0.6909  -15.8273   20.9263 O   0  0  0  0  0  0  0  0  0  0  0  0
   -0.5755  -17.5510   19.4780 N   0  0  0  0  0  0  0  0  0  0  0  0
   -1.7221  -18.0900   20.2837 C   0  0  0  0  0  0  0  0  0  0  0  0
   -3.2315  -19.0131   19.6122 C   0  0  0  0  0  0  0  0  0  0  0  0
   -4.1726  -20.4576   20.0002 C   0  0  0  0  0  0  0  0  0  0  0  0
   -5.3197  -20.7370   19.2345 C   0  0  0  0  0  0  0  0  0  0  0  0
   -6.0062  -22.0032   19.2940 C   0  0  0  0  0  0  0  0  0  0  0  0
   -5.6480  -23.0609   20.1384 C   0  0  0  0  0  0  0  0  0  0  0  0
   -6.2717  -24.2728   20.1017 N   0  0  0  0  0  0  0  0  0  0  0  0
   -5.8542  -25.2451   20.9474 C   0  0  0  0  0  0  0  0  0  0  0  0
   -4.8783  -25.0495   21.8971 C   0  0  0  0  0  0  0  0  0  0  0  0
   -4.2647  -23.7955   21.9411 C   0  0  0  0  0  0  0  0  0  0  0  0
   -4.6010  -22.7808   21.0181 C   0  0  0  0  0  0  0  0  0  0  0  0
   -3.8915  -21.5154   20.9290 C   0  0  0  0  0  0  0  0  0  0  0  0
    4.3145  -12.8609   20.1996 H   0  0  0  0  0  0  0  0  0  0  0  0
    5.7418  -12.2733   19.3925 H   0  0  0  0  0  0  0  0  0  0  0  0
    4.1816  -11.9661   18.6337 H   0  0  0  0  0  0  0  0  0  0  0  0
    6.9788  -13.5840   18.0436 H   0  0  0  0  0  0  0  0  0  0  0  0
    4.1692  -15.6720   15.8902 H   0  0  0  0  0  0  0  0  0  0  0  0
    1.5922  -14.4706   17.9592 H   0  0  0  0  0  0  0  0  0  0  0  0
    2.4845  -14.9020   20.5367 H   0  0  0  0  0  0  0  0  0  0  0  0
   -0.4037  -17.9127   18.5343 H   0  0  0  0  0  0  0  0  0  0  0  0
   -2.2556  -17.1404   20.3637 H   0  0  0  0  0  0  0  0  0  0  0  0
   -1.3073  -18.3167   21.2548 H   0  0  0  0  0  0  0  0  0  0  0  0
   -3.1142  -18.9891   18.5419 H   0  0  0  0  0  0  0  0  0  0  0  0
   -4.0162  -18.2424   19.6935 H   0  0  0  0  0  0  0  0  0  0  0  0
   -5.6879  -19.9881   18.5328 H   0  0  0  0  0  0  0  0  0  0  0  0
   -6.8556  -22.1578   18.6283 H   0  0  0  0  0  0  0  0  0  0  0  0
   -6.3412  -26.2070   20.8381 H   0  0  0  0  0  0  0  0  0  0  0  0
   -4.5897  -25.8456   22.5735 H   0  0  0  0  0  0  0  0  0  0  0  0
   -3.4870  -23.6238   22.6805 H   0  0  0  0  0  0  0  0  0  0  0  0
   -3.1033  -21.4166   21.6616 H   0  0  0  0  0  0  0  0  0  0  0  0
  1  2  1  0
  2  3  1  0
  3  4  2  0
  4  5  1  0
  5  6  2  0
  6  7  1  0
  7  8  1  0
  7  9  1  0
  9 10  2  0
  9 11  1  0
 11 12  1  0
 12 13  1  0
 13 14  1  0
 14 15  2  0
 15 16  1  0
 16 17  2  0
 17 18  1  0
 18 19  2  0
 19 20  1  0
 20 21  2  0
 21 22  1  0
 22 23  2  0
  6  2  1  0
 23 14  1  0
 22 17  1  0
  1 24  1  0
  1 25  1  0
  1 26  1  0
  3 27  1  0
  5 28  1  0
  7 29  1  0
  8 30  1  0
 11 31  1  0
 12 32  1  0
 12 33  1  0
 13 34  1  0
 13 35  1  0
 15 36  1  0
 16 37  1  0
 19 38  1  0
 20 39  1  0
 21 40  1  0
 23 41  1  0
M  END
>  <Energy>  (534) 
465.88461421554405

>  <compound_id>  (534) 
46512

>  <target_id>  (534) 
1

>  <reference_id>  (534) 
80

>  <inspiration_ids>  (534) 
[80, 68]

>  <energy_score>  (534) 
375.43618320033795

>  <distance_score>  (534) 
15.2645981821516

>  <path>  (534) 
/opt/xchem-fragalysis-2/maxwin/BulkDock/SCRATCH/511023/C46512-P80/C46512-P80.minimised.mol

>  <scratch_subdir>  (534) 
/opt/xchem-fragalysis-2/maxwin/BulkDock/SCRATCH/511023/C46512-P80

>  <fragmenstein_runtime>  (534) 
12.750248670578003

>  <fragmenstein_outcome>  (534) 
too moved

>  <fragmenstein_mode>  (534) 
expansion

>  <fragmenstein_error>  (534) 


$$$$
C46512-P68
     RDKit          3D

 41 43  0  0  0  0  0  0  0  0999 V2000
    2.8877  -18.8122   15.5372 C   0  0  0  0  0  0  0  0  0  0  0  0
    4.2734  -19.1508   15.4059 N   0  0  0  0  0  0  0  0  0  0  0  0
    5.2593  -18.2711   15.0373 C   0  0  0  0  0  0  0  0  0  0  0  0
    6.4352  -18.8498   15.0536 N   0  0  0  0  0  0  0  0  0  0  0  0
    6.1651  -20.1600   15.3998 C   0  0  0  0  0  0  0  0  0  0  0  0
    4.8161  -20.3891   15.6790 C   0  0  0  0  0  0  0  0  0  0  0  0
    4.0610  -21.5683   16.3578 C   0  0  0  0  0  0  0  0  0  0  0  0
    5.0646  -22.5468   16.6616 O   0  0  0  0  0  0  0  0  0  0  0  0
    2.8406  -22.3510   15.6595 C   0  0  0  0  0  0  0  0  0  0  0  0
    2.6313  -22.2111   14.4850 O   0  0  0  0  0  0  0  0  0  0  0  0
    2.1896  -23.2491   16.6618 N   0  0  0  0  0  0  0  0  0  0  0  0
    1.1487  -24.3181   16.4922 C   0  0  0  0  0  0  0  0  0  0  0  0
    0.1991  -24.5798   17.7277 C   0  0  0  0  0  0  0  0  0  0  0  0
   -0.7847  -25.7583   17.7496 C   0  0  0  0  0  0  0  0  0  0  0  0
   -1.8801  -25.8389   16.8838 C   0  0  0  0  0  0  0  0  0  0  0  0
   -2.8570  -26.8431   17.0342 C   0  0  0  0  0  0  0  0  0  0  0  0
   -2.7795  -27.7979   18.0320 C   0  0  0  0  0  0  0  0  0  0  0  0
   -3.7500  -28.7151   18.1404 N   0  0  0  0  0  0  0  0  0  0  0  0
   -3.6174  -29.6311   19.1097 C   0  0  0  0  0  0  0  0  0  0  0  0
   -2.5410  -29.6863   19.9809 C   0  0  0  0  0  0  0  0  0  0  0  0
   -1.5535  -28.7242   19.8790 C   0  0  0  0  0  0  0  0  0  0  0  0
   -1.6660  -27.7502   18.8935 C   0  0  0  0  0  0  0  0  0  0  0  0
   -0.6954  -26.7379   18.7553 C   0  0  0  0  0  0  0  0  0  0  0  0
    2.8444  -17.7379   15.7155 H   0  0  0  0  0  0  0  0  0  0  0  0
    2.4722  -19.3347   16.4017 H   0  0  0  0  0  0  0  0  0  0  0  0
    2.3718  -19.1075   14.6225 H   0  0  0  0  0  0  0  0  0  0  0  0
    5.0516  -17.2435   14.7699 H   0  0  0  0  0  0  0  0  0  0  0  0
    6.9728  -20.8743   15.4961 H   0  0  0  0  0  0  0  0  0  0  0  0
    3.6609  -21.1913   17.3034 H   0  0  0  0  0  0  0  0  0  0  0  0
    5.3069  -22.9225   15.7947 H   0  0  0  0  0  0  0  0  0  0  0  0
    2.6764  -23.1659   17.5511 H   0  0  0  0  0  0  0  0  0  0  0  0
    0.5665  -24.0776   15.5986 H   0  0  0  0  0  0  0  0  0  0  0  0
    1.7052  -25.2365   16.2743 H   0  0  0  0  0  0  0  0  0  0  0  0
   -0.3839  -23.6653   17.8895 H   0  0  0  0  0  0  0  0  0  0  0  0
    0.8490  -24.6606   18.6096 H   0  0  0  0  0  0  0  0  0  0  0  0
   -2.0071  -25.1031   16.0939 H   0  0  0  0  0  0  0  0  0  0  0  0
   -3.7049  -26.8682   16.3533 H   0  0  0  0  0  0  0  0  0  0  0  0
   -4.4464  -30.3243   19.1633 H   0  0  0  0  0  0  0  0  0  0  0  0
   -2.4644  -30.4486   20.7427 H   0  0  0  0  0  0  0  0  0  0  0  0
   -0.7087  -28.7447   20.5603 H   0  0  0  0  0  0  0  0  0  0  0  0
    0.1329  -26.6958   19.4608 H   0  0  0  0  0  0  0  0  0  0  0  0
  1  2  1  0
  2  3  1  0
  3  4  2  0
  4  5  1  0
  5  6  2  0
  6  7  1  0
  7  8  1  0
  7  9  1  0
  9 10  2  0
  9 11  1  0
 11 12  1  0
 12 13  1  0
 13 14  1  0
 14 15  2  0
 15 16  1  0
 16 17  2  0
 17 18  1  0
 18 19  2  0
 19 20  1  0
 20 21  2  0
 21 22  1  0
 22 23  2  0
  6  2  1  0
 23 14  1  0
 22 17  1  0
  1 24  1  0
  1 25  1  0
  1 26  1  0
  3 27  1  0
  5 28  1  0
  7 29  1  0
  8 30  1  0
 11 31  1  0
 12 32  1  0
 12 33  1  0
 13 34  1  0
 13 35  1  0
 15 36  1  0
 16 37  1  0
 19 38  1  0
 20 39  1  0
 21 40  1  0
 23 41  1  0
M  END
>  <Energy>  (535) 
97.320038589085172

>  <compound_id>  (535) 
46512

>  <target_id>  (535) 
1

>  <reference_id>  (535) 
68

>  <inspiration_ids>  (535) 
[80, 68]

>  <energy_score>  (535) 
6.871607573884432

>  <distance_score>  (535) 
15.490066319131277

>  <path>  (535) 
/opt/xchem-fragalysis-2/maxwin/BulkDock/SCRATCH/511023/C46512-P68/C46512-P68.minimised.mol

>  <scratch_subdir>  (535) 
/opt/xchem-fragalysis-2/maxwin/BulkDock/SCRATCH/511023/C46512-P68

>  <fragmenstein_runtime>  (535) 
26.14314031600952

>  <fragmenstein_outcome>  (535) 
too moved

>  <fragmenstein_mode>  (535) 
expansion

>  <fragmenstein_error>  (535) 


$$$$
C46513-P80
     RDKit          3D

 34 36  0  0  0  0  0  0  0  0999 V2000
    2.3814  -24.2693   14.8858 O   0  0  0  0  0  0  0  0  0  0  0  0
    2.3488  -23.7738   15.9808 C   0  0  0  0  0  0  0  0  0  0  0  0
    2.7107  -22.4276   16.4291 N   0  0  0  0  0  0  0  0  0  0  0  0
    3.1500  -21.1815   15.6345 C   0  0  0  0  0  0  0  0  0  0  0  0
    4.6732  -20.8594   15.2820 C   0  0  0  0  0  0  0  0  0  0  0  0
    5.0627  -19.4912   14.6333 C   0  0  0  0  0  0  0  0  0  0  0  0
    6.1046  -18.6992   15.1715 N   0  0  0  0  0  0  0  0  0  0  0  0
    6.2481  -17.6524   14.3808 C   0  0  0  0  0  0  0  0  0  0  0  0
    5.3803  -17.7195   13.3332 N   0  0  0  0  0  0  0  0  0  0  0  0
    4.6649  -18.8815   13.4616 C   0  0  0  0  0  0  0  0  0  0  0  0
    3.4254  -19.5290   12.1810 Br  0  0  0  0  0  0  0  0  0  0  0  0
    1.6999  -24.7597   17.0268 C   0  0  0  0  0  0  0  0  0  0  0  0
    2.4085  -25.8682   17.5038 C   0  0  0  0  0  0  0  0  0  0  0  0
    1.7734  -26.9404   18.2055 C   0  0  0  0  0  0  0  0  0  0  0  0
    0.4009  -27.0092   18.4294 C   0  0  0  0  0  0  0  0  0  0  0  0
   -0.1444  -28.0756   19.0715 N   0  0  0  0  0  0  0  0  0  0  0  0
   -1.4871  -28.1234   19.2158 C   0  0  0  0  0  0  0  0  0  0  0  0
   -2.3253  -27.1311   18.7511 C   0  0  0  0  0  0  0  0  0  0  0  0
   -1.7500  -26.0266   18.1083 C   0  0  0  0  0  0  0  0  0  0  0  0
   -0.3554  -25.9325   17.9316 C   0  0  0  0  0  0  0  0  0  0  0  0
    0.2988  -24.8268   17.2541 C   0  0  0  0  0  0  0  0  0  0  0  0
    2.6343  -22.3828   17.4504 H   0  0  0  0  0  0  0  0  0  0  0  0
    2.5926  -21.2425   14.6941 H   0  0  0  0  0  0  0  0  0  0  0  0
    2.7433  -20.3367   16.2014 H   0  0  0  0  0  0  0  0  0  0  0  0
    5.0134  -21.6408   14.5893 H   0  0  0  0  0  0  0  0  0  0  0  0
    5.2719  -21.0019   16.1865 H   0  0  0  0  0  0  0  0  0  0  0  0
    6.9602  -16.8481   14.5079 H   0  0  0  0  0  0  0  0  0  0  0  0
    5.2997  -17.0751   12.5608 H   0  0  0  0  0  0  0  0  0  0  0  0
    3.4757  -25.9373   17.3002 H   0  0  0  0  0  0  0  0  0  0  0  0
    2.3908  -27.7700   18.5472 H   0  0  0  0  0  0  0  0  0  0  0  0
   -1.8738  -28.9996   19.7276 H   0  0  0  0  0  0  0  0  0  0  0  0
   -3.3989  -27.2002   18.8882 H   0  0  0  0  0  0  0  0  0  0  0  0
   -2.4009  -25.2339   17.7446 H   0  0  0  0  0  0  0  0  0  0  0  0
   -0.3215  -24.0347   16.8423 H   0  0  0  0  0  0  0  0  0  0  0  0
  1  2  2  0
  2  3  1  0
  3  4  1  0
  4  5  1  0
  5  6  1  0
  6  7  1  0
  7  8  2  0
  8  9  1  0
  9 10  1  0
 10 11  1  0
  2 12  1  0
 12 13  2  0
 13 14  1  0
 14 15  2  0
 15 16  1  0
 16 17  2  0
 17 18  1  0
 18 19  2  0
 19 20  1  0
 20 21  2  0
 10  6  2  0
 21 12  1  0
 20 15  1  0
  3 22  1  0
  4 23  1  0
  4 24  1  0
  5 25  1  0
  5 26  1  0
  8 27  1  0
  9 28  1  0
 13 29  1  0
 14 30  1  0
 17 31  1  0
 18 32  1  0
 19 33  1  0
 21 34  1  0
M  END
>  <Energy>  (536) 
66.713024384196231

>  <compound_id>  (536) 
46513

>  <target_id>  (536) 
1

>  <reference_id>  (536) 
80

>  <inspiration_ids>  (536) 
[80, 68]

>  <energy_score>  (536) 
19.243465191386576

>  <distance_score>  (536) 
16.52893035776451

>  <path>  (536) 
/opt/xchem-fragalysis-2/maxwin/BulkDock/SCRATCH/511023/C46513-P80/C46513-P80.minimised.mol

>  <scratch_subdir>  (536) 
/opt/xchem-fragalysis-2/maxwin/BulkDock/SCRATCH/511023/C46513-P80

>  <fragmenstein_runtime>  (536) 
11.209639310836792

>  <fragmenstein_outcome>  (536) 
too moved

>  <fragmenstein_mode>  (536) 
expansion

>  <fragmenstein_error>  (536) 


$$$$
C46513-P68
     RDKit          3D

 34 36  0  0  0  0  0  0  0  0999 V2000
    1.4792  -25.0250   16.1326 O   0  0  0  0  0  0  0  0  0  0  0  0
    1.2823  -24.4336   17.1628 C   0  0  0  0  0  0  0  0  0  0  0  0
    1.6641  -23.0680   17.5731 N   0  0  0  0  0  0  0  0  0  0  0  0
    2.5185  -22.0049   16.8607 C   0  0  0  0  0  0  0  0  0  0  0  0
    2.3903  -20.4718   17.2306 C   0  0  0  0  0  0  0  0  0  0  0  0
    3.1960  -19.3530   16.5258 C   0  0  0  0  0  0  0  0  0  0  0  0
    3.1304  -18.0457   17.0540 N   0  0  0  0  0  0  0  0  0  0  0  0
    3.8776  -17.2781   16.2951 C   0  0  0  0  0  0  0  0  0  0  0  0
    4.3961  -17.9850   15.2586 N   0  0  0  0  0  0  0  0  0  0  0  0
    4.0215  -19.2958   15.4194 C   0  0  0  0  0  0  0  0  0  0  0  0
    4.5482  -20.6950   14.2565 Br  0  0  0  0  0  0  0  0  0  0  0  0
    0.4264  -25.3170   18.1303 C   0  0  0  0  0  0  0  0  0  0  0  0
    0.7261  -25.5583   19.4663 C   0  0  0  0  0  0  0  0  0  0  0  0
    0.0818  -26.5931   20.2140 C   0  0  0  0  0  0  0  0  0  0  0  0
   -0.8767  -27.4493   19.6782 C   0  0  0  0  0  0  0  0  0  0  0  0
   -1.3936  -28.4642   20.4153 N   0  0  0  0  0  0  0  0  0  0  0  0
   -2.2616  -29.3073   19.8134 C   0  0  0  0  0  0  0  0  0  0  0  0
   -2.6954  -29.1546   18.5118 C   0  0  0  0  0  0  0  0  0  0  0  0
   -2.1699  -28.0950   17.7694 C   0  0  0  0  0  0  0  0  0  0  0  0
   -1.2237  -27.2217   18.3365 C   0  0  0  0  0  0  0  0  0  0  0  0
   -0.5784  -26.1719   17.5926 C   0  0  0  0  0  0  0  0  0  0  0  0
    1.4068  -22.9289   18.5444 H   0  0  0  0  0  0  0  0  0  0  0  0
    2.3100  -22.1401   15.7953 H   0  0  0  0  0  0  0  0  0  0  0  0
    3.5537  -22.3230   17.0262 H   0  0  0  0  0  0  0  0  0  0  0  0
    1.3419  -20.1958   17.1542 H   0  0  0  0  0  0  0  0  0  0  0  0
    2.5530  -20.4199   18.3005 H   0  0  0  0  0  0  0  0  0  0  0  0
    4.0558  -16.2296   16.4625 H   0  0  0  0  0  0  0  0  0  0  0  0
    4.9193  -17.6236   14.4769 H   0  0  0  0  0  0  0  0  0  0  0  0
    1.4928  -24.9747   19.9538 H   0  0  0  0  0  0  0  0  0  0  0  0
    0.3779  -26.7405   21.2502 H   0  0  0  0  0  0  0  0  0  0  0  0
   -2.5958  -30.1366   20.4259 H   0  0  0  0  0  0  0  0  0  0  0  0
   -3.4040  -29.8478   18.0747 H   0  0  0  0  0  0  0  0  0  0  0  0
   -2.4773  -27.9685   16.7341 H   0  0  0  0  0  0  0  0  0  0  0  0
   -0.8200  -26.0617   16.5347 H   0  0  0  0  0  0  0  0  0  0  0  0
  1  2  2  0
  2  3  1  0
  3  4  1  0
  4  5  1  0
  5  6  1  0
  6  7  1  0
  7  8  2  0
  8  9  1  0
  9 10  1  0
 10 11  1  0
  2 12  1  0
 12 13  2  0
 13 14  1  0
 14 15  2  0
 15 16  1  0
 16 17  2  0
 17 18  1  0
 18 19  2  0
 19 20  1  0
 20 21  2  0
 10  6  2  0
 21 12  1  0
 20 15  1  0
  3 22  1  0
  4 23  1  0
  4 24  1  0
  5 25  1  0
  5 26  1  0
  8 27  1  0
  9 28  1  0
 13 29  1  0
 14 30  1  0
 17 31  1  0
 18 32  1  0
 19 33  1  0
 21 34  1  0
M  END
>  <Energy>  (537) 
64.472960944406069

>  <compound_id>  (537) 
46513

>  <target_id>  (537) 
1

>  <reference_id>  (537) 
68

>  <inspiration_ids>  (537) 
[80, 68]

>  <energy_score>  (537) 
17.003401751596925

>  <distance_score>  (537) 
15.83627826973794

>  <path>  (537) 
/opt/xchem-fragalysis-2/maxwin/BulkDock/SCRATCH/511023/C46513-P68/C46513-P68.minimised.mol

>  <scratch_subdir>  (537) 
/opt/xchem-fragalysis-2/maxwin/BulkDock/SCRATCH/511023/C46513-P68

>  <fragmenstein_runtime>  (537) 
15.94472360610962

>  <fragmenstein_outcome>  (537) 
too moved

>  <fragmenstein_mode>  (537) 
expansion

>  <fragmenstein_error>  (537) 


$$$$
C46514-P80
     RDKit          3D

 48 50  0  0  0  0  0  0  0  0999 V2000
    6.6746  -21.5160   15.5932 C   0  0  0  0  0  0  0  0  0  0  0  0
    5.6041  -20.5563   15.2137 C   0  0  0  0  0  0  0  0  0  0  0  0
    5.8082  -19.2956   14.8572 N   0  0  0  0  0  0  0  0  0  0  0  0
    4.5781  -18.8156   14.5041 C   0  0  0  0  0  0  0  0  0  0  0  0
    3.6055  -19.7596   14.7459 C   0  0  0  0  0  0  0  0  0  0  0  0
    4.2470  -20.8791   15.2172 N   0  0  0  0  0  0  0  0  0  0  0  0
    3.6564  -22.2327   15.3205 C   0  0  0  0  0  0  0  0  0  0  0  0
    2.4995  -22.6138   16.3507 C   0  0  0  0  0  0  0  0  0  0  0  0
    2.9589  -22.3618   17.7817 C   0  0  0  0  0  0  0  0  0  0  0  0
    2.0785  -24.1371   16.1633 C   0  0  0  0  0  0  0  0  0  0  0  0
    0.9365  -24.8236   17.0705 N   0  0  0  0  0  0  0  0  0  0  0  0
    0.7873  -25.4879   17.9111 C   0  0  0  0  0  0  0  0  0  0  0  0
    2.2381  -25.7267   18.3965 O   0  0  0  0  0  0  0  0  0  0  0  0
   -0.4974  -26.0038   18.3800 N   0  0  0  0  0  0  0  0  0  0  0  0
   -0.8650  -26.8501   19.5334 C   0  0  0  0  0  0  0  0  0  0  0  0
   -1.9763  -27.9239   19.4933 C   0  0  0  0  0  0  0  0  0  0  0  0
   -2.2023  -28.7712   18.4092 C   0  0  0  0  0  0  0  0  0  0  0  0
   -3.0660  -29.8935   18.5197 C   0  0  0  0  0  0  0  0  0  0  0  0
   -3.7277  -30.2405   19.6967 C   0  0  0  0  0  0  0  0  0  0  0  0
   -4.4893  -31.3581   19.7535 N   0  0  0  0  0  0  0  0  0  0  0  0
   -5.0952  -31.6566   20.9260 C   0  0  0  0  0  0  0  0  0  0  0  0
   -4.9836  -30.8791   22.0603 C   0  0  0  0  0  0  0  0  0  0  0  0
   -4.1954  -29.7310   21.9932 C   0  0  0  0  0  0  0  0  0  0  0  0
   -3.5381  -29.3897   20.7992 C   0  0  0  0  0  0  0  0  0  0  0  0
   -2.6777  -28.2544   20.6853 C   0  0  0  0  0  0  0  0  0  0  0  0
    7.6361  -20.9996   15.6775 H   0  0  0  0  0  0  0  0  0  0  0  0
    6.4587  -21.9823   16.5592 H   0  0  0  0  0  0  0  0  0  0  0  0
    6.7759  -22.2981   14.8349 H   0  0  0  0  0  0  0  0  0  0  0  0
    4.4475  -17.8191   14.1132 H   0  0  0  0  0  0  0  0  0  0  0  0
    2.5354  -19.7395   14.5943 H   0  0  0  0  0  0  0  0  0  0  0  0
    3.2821  -22.4395   14.3085 H   0  0  0  0  0  0  0  0  0  0  0  0
    4.4897  -22.9254   15.4827 H   0  0  0  0  0  0  0  0  0  0  0  0
    1.6278  -21.9888   16.1339 H   0  0  0  0  0  0  0  0  0  0  0  0
    3.8972  -22.8834   17.9970 H   0  0  0  0  0  0  0  0  0  0  0  0
    3.1140  -21.2933   17.9469 H   0  0  0  0  0  0  0  0  0  0  0  0
    2.2130  -22.6999   18.5063 H   0  0  0  0  0  0  0  0  0  0  0  0
    1.8289  -24.3243   15.1018 H   0  0  0  0  0  0  0  0  0  0  0  0
    2.9739  -24.7446   16.3522 H   0  0  0  0  0  0  0  0  0  0  0  0
    0.6458  -24.2138   16.3438 H   0  0  0  0  0  0  0  0  0  0  0  0
   -1.2249  -25.5434   17.8528 H   0  0  0  0  0  0  0  0  0  0  0  0
   -1.1289  -26.1291   20.3168 H   0  0  0  0  0  0  0  0  0  0  0  0
    0.0577  -27.3451   19.8594 H   0  0  0  0  0  0  0  0  0  0  0  0
   -1.6706  -28.6101   17.4733 H   0  0  0  0  0  0  0  0  0  0  0  0
   -3.1928  -30.5407   17.6536 H   0  0  0  0  0  0  0  0  0  0  0  0
   -5.6929  -32.5627   20.9284 H   0  0  0  0  0  0  0  0  0  0  0  0
   -5.4909  -31.1620   22.9769 H   0  0  0  0  0  0  0  0  0  0  0  0
   -4.0887  -29.1133   22.8807 H   0  0  0  0  0  0  0  0  0  0  0  0
   -2.5113  -27.6448   21.5740 H   0  0  0  0  0  0  0  0  0  0  0  0
  1  2  1  0
  2  3  2  0
  3  4  1  0
  4  5  2  0
  5  6  1  0
  6  7  1  0
  7  8  1  0
  8  9  1  0
  8 10  1  0
 10 11  1  0
 11 12  1  0
 12 13  2  0
 12 14  1  0
 14 15  1  0
 15 16  1  0
 16 17  2  0
 17 18  1  0
 18 19  2  0
 19 20  1  0
 20 21  2  0
 21 22  1  0
 22 23  2  0
 23 24  1  0
 24 25  2  0
  6  2  1  0
 25 16  1  0
 24 19  1  0
  1 26  1  0
  1 27  1  0
  1 28  1  0
  4 29  1  0
  5 30  1  0
  7 31  1  0
  7 32  1  0
  8 33  1  0
  9 34  1  0
  9 35  1  0
  9 36  1  0
 10 37  1  0
 10 38  1  0
 11 39  1  0
 14 40  1  0
 15 41  1  0
 15 42  1  0
 17 43  1  0
 18 44  1  0
 21 45  1  0
 22 46  1  0
 23 47  1  0
 25 48  1  0
M  END
>  <Energy>  (538) 
167.49924314924257

>  <compound_id>  (538) 
46514

>  <target_id>  (538) 
1

>  <reference_id>  (538) 
80

>  <inspiration_ids>  (538) 
[80, 68]

>  <energy_score>  (538) 
187.15147535958465

>  <distance_score>  (538) 
14.188268980996426

>  <path>  (538) 
/opt/xchem-fragalysis-2/maxwin/BulkDock/SCRATCH/511023/C46514-P80/C46514-P80.minimised.mol

>  <scratch_subdir>  (538) 
/opt/xchem-fragalysis-2/maxwin/BulkDock/SCRATCH/511023/C46514-P80

>  <fragmenstein_runtime>  (538) 
37.40510320663452

>  <fragmenstein_outcome>  (538) 
too moved

>  <fragmenstein_mode>  (538) 
expansion

>  <fragmenstein_error>  (538) 


$$$$
C46514-P68
     RDKit          3D

 48 50  0  0  0  0  0  0  0  0999 V2000
    2.2699  -22.6746   14.2102 C   0  0  0  0  0  0  0  0  0  0  0  0
    2.2640  -22.0433   15.5554 C   0  0  0  0  0  0  0  0  0  0  0  0
    2.9723  -20.9764   15.8788 N   0  0  0  0  0  0  0  0  0  0  0  0
    2.5815  -20.6722   17.1417 C   0  0  0  0  0  0  0  0  0  0  0  0
    1.7290  -21.6289   17.6534 C   0  0  0  0  0  0  0  0  0  0  0  0
    1.4457  -22.4807   16.6103 N   0  0  0  0  0  0  0  0  0  0  0  0
    0.2876  -23.4069   16.4659 C   0  0  0  0  0  0  0  0  0  0  0  0
   -0.2555  -24.4615   17.5657 C   0  0  0  0  0  0  0  0  0  0  0  0
    0.7812  -25.5549   17.7943 C   0  0  0  0  0  0  0  0  0  0  0  0
   -1.6529  -25.0990   17.0854 C   0  0  0  0  0  0  0  0  0  0  0  0
   -2.3665  -26.2457   17.7572 N   0  0  0  0  0  0  0  0  0  0  0  0
   -2.4168  -27.7322   17.4041 C   0  0  0  0  0  0  0  0  0  0  0  0
   -1.8386  -28.3168   16.5695 O   0  0  0  0  0  0  0  0  0  0  0  0
   -3.4502  -28.2674   18.4338 N   0  0  0  0  0  0  0  0  0  0  0  0
   -3.9124  -29.6617   18.7132 C   0  0  0  0  0  0  0  0  0  0  0  0
   -5.2699  -30.1761   19.1568 C   0  0  0  0  0  0  0  0  0  0  0  0
   -6.4854  -29.9377   18.8664 C   0  0  0  0  0  0  0  0  0  0  0  0
   -7.6847  -30.7640   19.5247 C   0  0  0  0  0  0  0  0  0  0  0  0
   -7.9590  -31.9462   20.3652 C   0  0  0  0  0  0  0  0  0  0  0  0
   -9.3500  -32.4280   20.8987 N   0  0  0  0  0  0  0  0  0  0  0  0
   -9.5600  -33.6136   21.6517 C   0  0  0  0  0  0  0  0  0  0  0  0
   -8.5461  -34.5342   21.9526 C   0  0  0  0  0  0  0  0  0  0  0  0
   -7.2064  -34.0898   21.5874 C   0  0  0  0  0  0  0  0  0  0  0  0
   -6.7580  -32.5210   20.8016 C   0  0  0  0  0  0  0  0  0  0  0  0
   -5.6041  -31.2304   20.0308 C   0  0  0  0  0  0  0  0  0  0  0  0
    1.2943  -22.5665   13.7268 H   0  0  0  0  0  0  0  0  0  0  0  0
    3.0178  -22.1985   13.5682 H   0  0  0  0  0  0  0  0  0  0  0  0
    2.5177  -23.7380   14.2815 H   0  0  0  0  0  0  0  0  0  0  0  0
    2.9299  -19.7743   17.6113 H   0  0  0  0  0  0  0  0  0  0  0  0
    1.2650  -21.7297   18.6231 H   0  0  0  0  0  0  0  0  0  0  0  0
   -0.5475  -22.7398   16.2226 H   0  0  0  0  0  0  0  0  0  0  0  0
    0.4901  -23.9903   15.5603 H   0  0  0  0  0  0  0  0  0  0  0  0
   -0.4251  -23.9308   18.5095 H   0  0  0  0  0  0  0  0  0  0  0  0
    1.7332  -25.1253   18.1223 H   0  0  0  0  0  0  0  0  0  0  0  0
    0.9634  -26.1254   16.8776 H   0  0  0  0  0  0  0  0  0  0  0  0
    0.4458  -26.2534   18.5676 H   0  0  0  0  0  0  0  0  0  0  0  0
   -2.3902  -24.2884   17.0517 H   0  0  0  0  0  0  0  0  0  0  0  0
   -1.5076  -25.4397   16.0527 H   0  0  0  0  0  0  0  0  0  0  0  0
   -3.0456  -26.0514   18.4712 H   0  0  0  0  0  0  0  0  0  0  0  0
   -3.8239  -27.4988   18.9588 H   0  0  0  0  0  0  0  0  0  0  0  0
   -3.1729  -29.9861   19.4546 H   0  0  0  0  0  0  0  0  0  0  0  0
   -3.6660  -30.2160   17.7987 H   0  0  0  0  0  0  0  0  0  0  0  0
   -6.4916  -29.0125   18.2936 H   0  0  0  0  0  0  0  0  0  0  0  0
   -8.6660  -30.4172   19.5267 H   0  0  0  0  0  0  0  0  0  0  0  0
  -10.5950  -33.7882   21.9277 H   0  0  0  0  0  0  0  0  0  0  0  0
   -8.7209  -35.4600   22.4821 H   0  0  0  0  0  0  0  0  0  0  0  0
   -6.3996  -34.7469   21.9379 H   0  0  0  0  0  0  0  0  0  0  0  0
   -4.5825  -31.0860   20.4979 H   0  0  0  0  0  0  0  0  0  0  0  0
  1  2  1  0
  2  3  2  0
  3  4  1  0
  4  5  2  0
  5  6  1  0
  6  7  1  0
  7  8  1  0
  8  9  1  0
  8 10  1  0
 10 11  1  0
 11 12  1  0
 12 13  2  0
 12 14  1  0
 14 15  1  0
 15 16  1  0
 16 17  2  0
 17 18  1  0
 18 19  2  0
 19 20  1  0
 20 21  2  0
 21 22  1  0
 22 23  2  0
 23 24  1  0
 24 25  2  0
  6  2  1  0
 25 16  1  0
 24 19  1  0
  1 26  1  0
  1 27  1  0
  1 28  1  0
  4 29  1  0
  5 30  1  0
  7 31  1  0
  7 32  1  0
  8 33  1  0
  9 34  1  0
  9 35  1  0
  9 36  1  0
 10 37  1  0
 10 38  1  0
 11 39  1  0
 14 40  1  0
 15 41  1  0
 15 42  1  0
 17 43  1  0
 18 44  1  0
 21 45  1  0
 22 46  1  0
 23 47  1  0
 25 48  1  0
M  END
>  <Energy>  (539) 
221.72782243189295

>  <compound_id>  (539) 
46514

>  <target_id>  (539) 
1

>  <reference_id>  (539) 
68

>  <inspiration_ids>  (539) 
[80, 68]

>  <energy_score>  (539) 
241.38005464223028

>  <distance_score>  (539) 
13.987224950864132

>  <path>  (539) 
/opt/xchem-fragalysis-2/maxwin/BulkDock/SCRATCH/511023/C46514-P68/C46514-P68.minimised.mol

>  <scratch_subdir>  (539) 
/opt/xchem-fragalysis-2/maxwin/BulkDock/SCRATCH/511023/C46514-P68

>  <fragmenstein_runtime>  (539) 
44.21260356903076

>  <fragmenstein_outcome>  (539) 
too moved

>  <fragmenstein_mode>  (539) 
expansion

>  <fragmenstein_error>  (539) 


$$$$
C46515-P80
     RDKit          3D

 37 40  0  0  0  0  0  0  0  0999 V2000
   -3.2527  -19.0578   20.3510 O   0  0  0  0  0  0  0  0  0  0  0  0
   -2.9325  -20.0920   21.3242 S   0  0  0  0  0  0  0  0  0  0  0  0
   -1.6962  -19.9710   22.0819 O   0  0  0  0  0  0  0  0  0  0  0  0
   -4.2521  -20.2327   22.5135 C   0  0  0  0  0  0  0  0  0  0  0  0
   -5.1972  -21.3194   22.0123 C   0  0  0  0  0  0  0  0  0  0  0  0
   -4.3782  -22.4941   21.4126 C   0  0  0  0  0  0  0  0  0  0  0  0
   -5.2846  -23.3709   20.6101 N   0  0  0  0  0  0  0  0  0  0  0  0
   -5.9008  -22.8363   19.4848 C   0  0  0  0  0  0  0  0  0  0  0  0
   -7.0023  -23.6062   19.2454 C   0  0  0  0  0  0  0  0  0  0  0  0
   -7.0469  -24.6416   20.1207 N   0  0  0  0  0  0  0  0  0  0  0  0
   -5.9411  -24.6037   20.8640 C   0  0  0  0  0  0  0  0  0  0  0  0
   -5.5829  -25.8427   21.6262 C   0  0  0  0  0  0  0  0  0  0  0  0
   -4.2845  -26.2244   21.9441 C   0  0  0  0  0  0  0  0  0  0  0  0
   -4.0032  -27.5439   22.3781 C   0  0  0  0  0  0  0  0  0  0  0  0
   -4.9754  -28.5337   22.4871 C   0  0  0  0  0  0  0  0  0  0  0  0
   -4.6226  -29.7976   22.7907 N   0  0  0  0  0  0  0  0  0  0  0  0
   -5.5958  -30.7372   22.7878 C   0  0  0  0  0  0  0  0  0  0  0  0
   -6.9264  -30.4676   22.5449 C   0  0  0  0  0  0  0  0  0  0  0  0
   -7.2815  -29.1508   22.2761 C   0  0  0  0  0  0  0  0  0  0  0  0
   -6.2983  -28.1574   22.2150 C   0  0  0  0  0  0  0  0  0  0  0  0
   -6.5880  -26.8289   21.8162 C   0  0  0  0  0  0  0  0  0  0  0  0
   -3.1902  -21.7961   20.6326 C   0  0  0  0  0  0  0  0  0  0  0  0
   -4.7500  -19.2669   22.6230 H   0  0  0  0  0  0  0  0  0  0  0  0
   -3.8062  -20.5275   23.4683 H   0  0  0  0  0  0  0  0  0  0  0  0
   -5.8502  -20.8710   21.2535 H   0  0  0  0  0  0  0  0  0  0  0  0
   -5.8515  -21.6701   22.8184 H   0  0  0  0  0  0  0  0  0  0  0  0
   -3.9736  -23.1177   22.2172 H   0  0  0  0  0  0  0  0  0  0  0  0
   -5.5689  -21.9221   19.0127 H   0  0  0  0  0  0  0  0  0  0  0  0
   -7.7678  -23.4653   18.4938 H   0  0  0  0  0  0  0  0  0  0  0  0
   -3.4499  -25.5478   21.7882 H   0  0  0  0  0  0  0  0  0  0  0  0
   -2.9698  -27.8226   22.5772 H   0  0  0  0  0  0  0  0  0  0  0  0
   -5.2609  -31.7463   22.9822 H   0  0  0  0  0  0  0  0  0  0  0  0
   -7.6670  -31.2573   22.5447 H   0  0  0  0  0  0  0  0  0  0  0  0
   -8.3176  -28.9191   22.0428 H   0  0  0  0  0  0  0  0  0  0  0  0
   -7.6178  -26.5877   21.5461 H   0  0  0  0  0  0  0  0  0  0  0  0
   -3.3870  -21.6732   19.5654 H   0  0  0  0  0  0  0  0  0  0  0  0
   -2.2603  -22.3540   20.7727 H   0  0  0  0  0  0  0  0  0  0  0  0
  1  2  2  0
  2  3  2  0
  2  4  1  0
  4  5  1  0
  5  6  1  0
  6  7  1  0
  7  8  1  0
  8  9  2  0
  9 10  1  0
 10 11  2  0
 11 12  1  0
 12 13  2  0
 13 14  1  0
 14 15  2  0
 15 16  1  0
 16 17  2  0
 17 18  1  0
 18 19  2  0
 19 20  1  0
 20 21  2  0
  6 22  1  0
 22  2  1  0
 11  7  1  0
 21 12  1  0
 20 15  1  0
  4 23  1  0
  4 24  1  0
  5 25  1  0
  5 26  1  0
  6 27  1  0
  8 28  1  0
  9 29  1  0
 13 30  1  0
 14 31  1  0
 17 32  1  0
 18 33  1  0
 19 34  1  0
 21 35  1  0
 22 36  1  0
 22 37  1  0
M  END
>  <Energy>  (540) 
48.778390748527968

>  <compound_id>  (540) 
46515

>  <target_id>  (540) 
1

>  <reference_id>  (540) 
80

>  <inspiration_ids>  (540) 
[80, 68]

>  <energy_score>  (540) 
-3.3058445098072298

>  <distance_score>  (540) 
13.940852253982282

>  <path>  (540) 
/opt/xchem-fragalysis-2/maxwin/BulkDock/SCRATCH/511023/C46515-P80/C46515-P80.minimised.mol

>  <scratch_subdir>  (540) 
/opt/xchem-fragalysis-2/maxwin/BulkDock/SCRATCH/511023/C46515-P80

>  <fragmenstein_runtime>  (540) 
14.32671856880188

>  <fragmenstein_outcome>  (540) 
too moved

>  <fragmenstein_mode>  (540) 
expansion

>  <fragmenstein_error>  (540) 


$$$$
C46515-P68
     RDKit          3D

 37 40  0  0  0  0  0  0  0  0999 V2000
    2.6459  -21.5706   17.3191 O   0  0  0  0  0  0  0  0  0  0  0  0
    1.4389  -21.1566   18.0082 S   0  0  0  0  0  0  0  0  0  0  0  0
    1.1205  -19.7366   18.0084 O   0  0  0  0  0  0  0  0  0  0  0  0
    1.4129  -21.8145   19.6814 C   0  0  0  0  0  0  0  0  0  0  0  0
   -0.0192  -22.3060   19.9523 C   0  0  0  0  0  0  0  0  0  0  0  0
   -0.4939  -23.0996   18.7238 C   0  0  0  0  0  0  0  0  0  0  0  0
   -1.9501  -23.4432   18.7961 N   0  0  0  0  0  0  0  0  0  0  0  0
   -2.8992  -22.5267   18.3699 C   0  0  0  0  0  0  0  0  0  0  0  0
   -4.1236  -23.1086   18.5401 C   0  0  0  0  0  0  0  0  0  0  0  0
   -3.9896  -24.3281   19.1183 N   0  0  0  0  0  0  0  0  0  0  0  0
   -2.6915  -24.5407   19.3206 C   0  0  0  0  0  0  0  0  0  0  0  0
   -2.3324  -25.7708   20.0771 C   0  0  0  0  0  0  0  0  0  0  0  0
   -2.8890  -25.9544   21.3576 C   0  0  0  0  0  0  0  0  0  0  0  0
   -2.7678  -27.1672   22.0619 C   0  0  0  0  0  0  0  0  0  0  0  0
   -2.1075  -28.2554   21.5217 C   0  0  0  0  0  0  0  0  0  0  0  0
   -1.9690  -29.3804   22.2506 N   0  0  0  0  0  0  0  0  0  0  0  0
   -1.3324  -30.4220   21.6743 C   0  0  0  0  0  0  0  0  0  0  0  0
   -0.8421  -30.4048   20.3829 C   0  0  0  0  0  0  0  0  0  0  0  0
   -0.9779  -29.2352   19.6430 C   0  0  0  0  0  0  0  0  0  0  0  0
   -1.6049  -28.1182   20.2089 C   0  0  0  0  0  0  0  0  0  0  0  0
   -1.7253  -26.8881   19.5003 C   0  0  0  0  0  0  0  0  0  0  0  0
   -0.0129  -22.1943   17.4884 C   0  0  0  0  0  0  0  0  0  0  0  0
    1.7051  -21.0538   20.4004 H   0  0  0  0  0  0  0  0  0  0  0  0
    2.1176  -22.6508   19.7141 H   0  0  0  0  0  0  0  0  0  0  0  0
   -0.0543  -22.9185   20.8596 H   0  0  0  0  0  0  0  0  0  0  0  0
   -0.6740  -21.4415   20.1190 H   0  0  0  0  0  0  0  0  0  0  0  0
    0.0288  -24.0626   18.6733 H   0  0  0  0  0  0  0  0  0  0  0  0
   -2.6511  -21.5473   17.9882 H   0  0  0  0  0  0  0  0  0  0  0  0
   -5.0958  -22.6998   18.2970 H   0  0  0  0  0  0  0  0  0  0  0  0
   -3.4593  -25.1443   21.8119 H   0  0  0  0  0  0  0  0  0  0  0  0
   -3.2035  -27.2536   23.0544 H   0  0  0  0  0  0  0  0  0  0  0  0
   -1.2312  -31.3081   22.2934 H   0  0  0  0  0  0  0  0  0  0  0  0
   -0.3682  -31.2857   19.9647 H   0  0  0  0  0  0  0  0  0  0  0  0
   -0.5898  -29.2022   18.6287 H   0  0  0  0  0  0  0  0  0  0  0  0
   -1.3679  -26.8261   18.4745 H   0  0  0  0  0  0  0  0  0  0  0  0
   -0.7643  -21.4873   17.1356 H   0  0  0  0  0  0  0  0  0  0  0  0
    0.3106  -22.8288   16.6586 H   0  0  0  0  0  0  0  0  0  0  0  0
  1  2  2  0
  2  3  2  0
  2  4  1  0
  4  5  1  0
  5  6  1  0
  6  7  1  0
  7  8  1  0
  8  9  2  0
  9 10  1  0
 10 11  2  0
 11 12  1  0
 12 13  2  0
 13 14  1  0
 14 15  2  0
 15 16  1  0
 16 17  2  0
 17 18  1  0
 18 19  2  0
 19 20  1  0
 20 21  2  0
  6 22  1  0
 22  2  1  0
 11  7  1  0
 21 12  1  0
 20 15  1  0
  4 23  1  0
  4 24  1  0
  5 25  1  0
  5 26  1  0
  6 27  1  0
  8 28  1  0
  9 29  1  0
 13 30  1  0
 14 31  1  0
 17 32  1  0
 18 33  1  0
 19 34  1  0
 21 35  1  0
 22 36  1  0
 22 37  1  0
M  END
>  <Energy>  (541) 
48.142663003451808

>  <compound_id>  (541) 
46515

>  <target_id>  (541) 
1

>  <reference_id>  (541) 
68

>  <inspiration_ids>  (541) 
[80, 68]

>  <energy_score>  (541) 
-3.9415722548791905

>  <distance_score>  (541) 
14.599526196992832

>  <path>  (541) 
/opt/xchem-fragalysis-2/maxwin/BulkDock/SCRATCH/511023/C46515-P68/C46515-P68.minimised.mol

>  <scratch_subdir>  (541) 
/opt/xchem-fragalysis-2/maxwin/BulkDock/SCRATCH/511023/C46515-P68

>  <fragmenstein_runtime>  (541) 
16.083849668502808

>  <fragmenstein_outcome>  (541) 
too moved

>  <fragmenstein_mode>  (541) 
expansion

>  <fragmenstein_error>  (541) 


$$$$
C46516-P80
     RDKit          3D

 41 43  0  0  0  0  0  0  0  0999 V2000
   -3.5154  -18.8045   19.4781 C   0  0  0  0  0  0  0  0  0  0  0  0
   -4.6837  -19.7120   19.1765 C   0  0  0  0  0  0  0  0  0  0  0  0
   -5.3881  -19.8241   18.0021 C   0  0  0  0  0  0  0  0  0  0  0  0
   -6.4099  -20.7298   18.2443 N   0  0  0  0  0  0  0  0  0  0  0  0
   -6.3398  -21.1981   19.5512 C   0  0  0  0  0  0  0  0  0  0  0  0
   -7.5536  -21.9780   20.3502 C   0  0  0  0  0  0  0  0  0  0  0  0
   -8.3747  -23.3034   20.1194 N   0  0  0  0  0  0  0  0  0  0  0  0
   -9.5044  -23.9364   20.9454 C   0  0  0  0  0  0  0  0  0  0  0  0
  -10.0842  -23.5199   21.9275 O   0  0  0  0  0  0  0  0  0  0  0  0
  -10.1557  -25.6683   20.4965 C   0  0  0  0  0  0  0  0  0  0  0  0
  -10.2125  -25.5589   19.0362 O   0  0  0  0  0  0  0  0  0  0  0  0
  -10.2135  -27.5143   21.5163 C   0  0  0  0  0  0  0  0  0  0  0  0
   -9.0230  -29.1925   21.9822 C   0  0  0  0  0  0  0  0  0  0  0  0
   -7.5235  -29.3299   22.0061 C   0  0  0  0  0  0  0  0  0  0  0  0
   -6.6599  -30.5049   22.1203 C   0  0  0  0  0  0  0  0  0  0  0  0
   -7.1191  -31.8022   22.0766 C   0  0  0  0  0  0  0  0  0  0  0  0
   -6.3015  -32.8740   22.0188 N   0  0  0  0  0  0  0  0  0  0  0  0
   -6.8414  -34.1051   21.8972 C   0  0  0  0  0  0  0  0  0  0  0  0
   -8.1932  -34.3300   21.7838 C   0  0  0  0  0  0  0  0  0  0  0  0
   -9.0171  -33.2131   21.7846 C   0  0  0  0  0  0  0  0  0  0  0  0
   -8.4753  -31.9164   21.9359 C   0  0  0  0  0  0  0  0  0  0  0  0
   -9.2549  -30.6871   21.7973 C   0  0  0  0  0  0  0  0  0  0  0  0
   -5.2767  -20.5736   20.1167 N   0  0  0  0  0  0  0  0  0  0  0  0
   -3.8649  -17.7738   19.5886 H   0  0  0  0  0  0  0  0  0  0  0  0
   -3.0331  -19.1118   20.4098 H   0  0  0  0  0  0  0  0  0  0  0  0
   -2.7897  -18.8459   18.6621 H   0  0  0  0  0  0  0  0  0  0  0  0
   -5.2917  -19.3347   17.0432 H   0  0  0  0  0  0  0  0  0  0  0  0
   -7.1476  -20.9655   17.5958 H   0  0  0  0  0  0  0  0  0  0  0  0
   -7.1462  -22.1239   21.3600 H   0  0  0  0  0  0  0  0  0  0  0  0
   -8.3360  -21.2150   20.4600 H   0  0  0  0  0  0  0  0  0  0  0  0
   -8.0685  -23.9633   19.4119 H   0  0  0  0  0  0  0  0  0  0  0  0
  -11.1337  -25.2633   20.7438 H   0  0  0  0  0  0  0  0  0  0  0  0
  -11.1240  -25.8570   18.8411 H   0  0  0  0  0  0  0  0  0  0  0  0
  -10.7520  -27.5863   20.5030 H   0  0  0  0  0  0  0  0  0  0  0  0
  -11.0045  -27.5594   22.3062 H   0  0  0  0  0  0  0  0  0  0  0  0
   -6.8451  -28.5134   21.8428 H   0  0  0  0  0  0  0  0  0  0  0  0
   -5.5824  -30.3509   22.1458 H   0  0  0  0  0  0  0  0  0  0  0  0
   -6.1229  -34.9180   21.8918 H   0  0  0  0  0  0  0  0  0  0  0  0
   -8.5892  -35.3311   21.6766 H   0  0  0  0  0  0  0  0  0  0  0  0
  -10.0878  -33.3399   21.6555 H   0  0  0  0  0  0  0  0  0  0  0  0
  -10.1587  -31.0124   21.2409 H   0  0  0  0  0  0  0  0  0  0  0  0
  1  2  1  0
  2  3  2  0
  3  4  1  0
  4  5  1  0
  5  6  1  0
  6  7  1  0
  7  8  1  0
  8  9  2  0
  8 10  1  0
 10 11  1  0
 10 12  1  0
 12 13  1  0
 13 14  2  0
 14 15  1  0
 15 16  2  0
 16 17  1  0
 17 18  2  0
 18 19  1  0
 19 20  2  0
 20 21  1  0
 21 22  2  0
  5 23  2  0
 23  2  1  0
 22 13  1  0
 21 16  1  0
  1 24  1  0
  1 25  1  0
  1 26  1  0
  3 27  1  0
  4 28  1  0
  6 29  1  0
  6 30  1  0
  7 31  1  0
 10 32  1  0
 11 33  1  0
 12 34  1  0
 12 35  1  0
 14 36  1  0
 15 37  1  0
 18 38  1  0
 19 39  1  0
 20 40  1  0
 22 41  1  0
M  END
>  <Energy>  (542) 
457.40270689368293

>  <compound_id>  (542) 
46516

>  <target_id>  (542) 
1

>  <reference_id>  (542) 
80

>  <inspiration_ids>  (542) 
[80, 68]

>  <energy_score>  (542) 
381.12742107873555

>  <distance_score>  (542) 
15.100290614171028

>  <path>  (542) 
/opt/xchem-fragalysis-2/maxwin/BulkDock/SCRATCH/511023/C46516-P80/C46516-P80.minimised.mol

>  <scratch_subdir>  (542) 
/opt/xchem-fragalysis-2/maxwin/BulkDock/SCRATCH/511023/C46516-P80

>  <fragmenstein_runtime>  (542) 
15.036435842514038

>  <fragmenstein_outcome>  (542) 
too moved

>  <fragmenstein_mode>  (542) 
expansion

>  <fragmenstein_error>  (542) 


$$$$
C46516-P68
     RDKit          3D

 41 43  0  0  0  0  0  0  0  0999 V2000
    2.4234  -11.9796   24.2882 C   0  0  0  0  0  0  0  0  0  0  0  0
    1.8329  -13.3109   24.6472 C   0  0  0  0  0  0  0  0  0  0  0  0
    2.3944  -14.3244   25.3775 C   0  0  0  0  0  0  0  0  0  0  0  0
    1.4594  -15.3340   25.4136 N   0  0  0  0  0  0  0  0  0  0  0  0
    0.3514  -14.9813   24.6712 C   0  0  0  0  0  0  0  0  0  0  0  0
   -0.9971  -15.8330   24.5640 C   0  0  0  0  0  0  0  0  0  0  0  0
   -1.1445  -17.3617   24.7244 N   0  0  0  0  0  0  0  0  0  0  0  0
   -2.0876  -18.3295   24.0695 C   0  0  0  0  0  0  0  0  0  0  0  0
   -2.9049  -18.1585   23.1998 O   0  0  0  0  0  0  0  0  0  0  0  0
   -2.0656  -19.8963   24.6981 C   0  0  0  0  0  0  0  0  0  0  0  0
   -0.7194  -20.3550   24.7674 O   0  0  0  0  0  0  0  0  0  0  0  0
   -3.0177  -20.9896   23.8829 C   0  0  0  0  0  0  0  0  0  0  0  0
   -3.3373  -22.4819   24.2559 C   0  0  0  0  0  0  0  0  0  0  0  0
   -4.2823  -22.8373   25.2270 C   0  0  0  0  0  0  0  0  0  0  0  0
   -4.7132  -24.1868   25.4077 C   0  0  0  0  0  0  0  0  0  0  0  0
   -4.2429  -25.2534   24.6441 C   0  0  0  0  0  0  0  0  0  0  0  0
   -4.6889  -26.5210   24.8477 N   0  0  0  0  0  0  0  0  0  0  0  0
   -4.1960  -27.5053   24.0622 C   0  0  0  0  0  0  0  0  0  0  0  0
   -3.2578  -27.2905   23.0734 C   0  0  0  0  0  0  0  0  0  0  0  0
   -2.8056  -25.9852   22.8737 C   0  0  0  0  0  0  0  0  0  0  0  0
   -3.2925  -24.9275   23.6613 C   0  0  0  0  0  0  0  0  0  0  0  0
   -2.8607  -23.5666   23.4803 C   0  0  0  0  0  0  0  0  0  0  0  0
    0.5796  -13.7435   24.1845 N   0  0  0  0  0  0  0  0  0  0  0  0
    1.6437  -11.3079   23.9167 H   0  0  0  0  0  0  0  0  0  0  0  0
    2.8825  -11.5184   25.1679 H   0  0  0  0  0  0  0  0  0  0  0  0
    3.1851  -12.0928   23.5160 H   0  0  0  0  0  0  0  0  0  0  0  0
    3.3460  -14.4206   25.8801 H   0  0  0  0  0  0  0  0  0  0  0  0
    1.5683  -16.2068   25.9080 H   0  0  0  0  0  0  0  0  0  0  0  0
   -1.6703  -15.4176   25.3236 H   0  0  0  0  0  0  0  0  0  0  0  0
   -1.4382  -15.6000   23.5874 H   0  0  0  0  0  0  0  0  0  0  0  0
   -0.6548  -17.8321   25.4775 H   0  0  0  0  0  0  0  0  0  0  0  0
   -2.4517  -19.8175   25.7205 H   0  0  0  0  0  0  0  0  0  0  0  0
   -0.4682  -20.6374   23.8696 H   0  0  0  0  0  0  0  0  0  0  0  0
   -2.5947  -21.0210   22.8685 H   0  0  0  0  0  0  0  0  0  0  0  0
   -3.9968  -20.5047   23.7648 H   0  0  0  0  0  0  0  0  0  0  0  0
   -4.7392  -22.0660   25.8452 H   0  0  0  0  0  0  0  0  0  0  0  0
   -5.4590  -24.3955   26.1729 H   0  0  0  0  0  0  0  0  0  0  0  0
   -4.5849  -28.4972   24.2593 H   0  0  0  0  0  0  0  0  0  0  0  0
   -2.8756  -28.1082   22.4743 H   0  0  0  0  0  0  0  0  0  0  0  0
   -2.0677  -25.7957   22.0976 H   0  0  0  0  0  0  0  0  0  0  0  0
   -2.1505  -23.3592   22.6793 H   0  0  0  0  0  0  0  0  0  0  0  0
  1  2  1  0
  2  3  2  0
  3  4  1  0
  4  5  1  0
  5  6  1  0
  6  7  1  0
  7  8  1  0
  8  9  2  0
  8 10  1  0
 10 11  1  0
 10 12  1  0
 12 13  1  0
 13 14  2  0
 14 15  1  0
 15 16  2  0
 16 17  1  0
 17 18  2  0
 18 19  1  0
 19 20  2  0
 20 21  1  0
 21 22  2  0
  5 23  2  0
 23  2  1  0
 22 13  1  0
 21 16  1  0
  1 24  1  0
  1 25  1  0
  1 26  1  0
  3 27  1  0
  4 28  1  0
  6 29  1  0
  6 30  1  0
  7 31  1  0
 10 32  1  0
 11 33  1  0
 12 34  1  0
 12 35  1  0
 14 36  1  0
 15 37  1  0
 18 38  1  0
 19 39  1  0
 20 40  1  0
 22 41  1  0
M  END
>  <Energy>  (543) 
108.60270589460426

>  <compound_id>  (543) 
46516

>  <target_id>  (543) 
1

>  <reference_id>  (543) 
68

>  <inspiration_ids>  (543) 
[80, 68]

>  <energy_score>  (543) 
32.3274200796601

>  <distance_score>  (543) 
15.304014487971973

>  <path>  (543) 
/opt/xchem-fragalysis-2/maxwin/BulkDock/SCRATCH/511023/C46516-P68/C46516-P68.minimised.mol

>  <scratch_subdir>  (543) 
/opt/xchem-fragalysis-2/maxwin/BulkDock/SCRATCH/511023/C46516-P68

>  <fragmenstein_runtime>  (543) 
28.168027877807617

>  <fragmenstein_outcome>  (543) 
too moved

>  <fragmenstein_mode>  (543) 
expansion

>  <fragmenstein_error>  (543) 


$$$$
C46519-P80
     RDKit          3D

 35 37  0  0  0  0  0  0  0  0999 V2000
    8.8295   -4.1692   15.3753 O   0  0  0  0  0  0  0  0  0  0  0  0
    7.6518   -4.2041   15.7134 C   0  0  0  0  0  0  0  0  0  0  0  0
    7.0934   -2.9091   15.5898 O   0  0  0  0  0  0  0  0  0  0  0  0
    6.4354   -5.8282   16.2249 C   0  0  0  0  0  0  0  0  0  0  0  0
    4.9676   -5.7666   16.4649 C   0  0  0  0  0  0  0  0  0  0  0  0
    4.0485   -7.0449   16.8204 N   0  0  0  0  0  0  0  0  0  0  0  0
    4.5811   -8.4601   16.7261 C   0  0  0  0  0  0  0  0  0  0  0  0
    3.5327  -10.2308   17.1629 C   0  0  0  0  0  0  0  0  0  0  0  0
    3.3348  -12.2306   17.9612 N   0  0  0  0  0  0  0  0  0  0  0  0
    2.2366  -14.3670   18.2834 S   0  0  0  0  0  0  0  0  0  0  0  0
    1.1242  -13.9815   17.4358 O   0  0  0  0  0  0  0  0  0  0  0  0
    3.2697  -15.2684   17.8559 O   0  0  0  0  0  0  0  0  0  0  0  0
    0.8759  -16.1422   19.3694 C   0  0  0  0  0  0  0  0  0  0  0  0
   -0.1304  -16.5599   20.4127 C   0  0  0  0  0  0  0  0  0  0  0  0
   -0.8364  -17.9284   20.5603 C   0  0  0  0  0  0  0  0  0  0  0  0
   -0.6984  -19.1280   19.8344 C   0  0  0  0  0  0  0  0  0  0  0  0
   -1.3851  -20.2594   20.1800 N   0  0  0  0  0  0  0  0  0  0  0  0
   -1.1734  -21.3900   19.4671 C   0  0  0  0  0  0  0  0  0  0  0  0
   -0.3022  -21.4405   18.4001 C   0  0  0  0  0  0  0  0  0  0  0  0
    0.3894  -20.2652   18.0576 C   0  0  0  0  0  0  0  0  0  0  0  0
    0.2119  -19.0611   18.7791 C   0  0  0  0  0  0  0  0  0  0  0  0
    0.9382  -17.7468   18.5322 C   0  0  0  0  0  0  0  0  0  0  0  0
    5.9842   -7.6603   16.2796 N   0  0  0  0  0  0  0  0  0  0  0  0
    7.7587   -2.4541   15.0155 H   0  0  0  0  0  0  0  0  0  0  0  0
    4.3215   -4.9000   16.4490 H   0  0  0  0  0  0  0  0  0  0  0  0
    3.0773   -6.8803   17.0231 H   0  0  0  0  0  0  0  0  0  0  0  0
    2.6526   -9.7860   17.7022 H   0  0  0  0  0  0  0  0  0  0  0  0
    4.1947   -9.6873   17.8803 H   0  0  0  0  0  0  0  0  0  0  0  0
    4.0245  -12.2393   18.7228 H   0  0  0  0  0  0  0  0  0  0  0  0
   -0.4931  -16.0605   21.3014 H   0  0  0  0  0  0  0  0  0  0  0  0
   -1.5351  -17.9870   21.4051 H   0  0  0  0  0  0  0  0  0  0  0  0
   -1.7369  -22.2607   19.7858 H   0  0  0  0  0  0  0  0  0  0  0  0
   -0.1487  -22.3575   17.8430 H   0  0  0  0  0  0  0  0  0  0  0  0
    1.0927  -20.2879   17.2261 H   0  0  0  0  0  0  0  0  0  0  0  0
    1.6330  -17.7951   17.6721 H   0  0  0  0  0  0  0  0  0  0  0  0
  1  2  2  0
  2  3  1  0
  2  4  1  0
  4  5  2  0
  5  6  1  0
  6  7  1  0
  7  8  1  0
  8  9  1  0
  9 10  1  0
 10 11  2  0
 10 12  2  0
 10 13  1  0
 13 14  2  0
 14 15  1  0
 15 16  2  0
 16 17  1  0
 17 18  2  0
 18 19  1  0
 19 20  2  0
 20 21  1  0
 21 22  2  0
  7 23  2  0
 23  4  1  0
 22 13  1  0
 21 16  1  0
  3 24  1  0
  5 25  1  0
  6 26  1  0
  8 27  1  0
  8 28  1  0
  9 29  1  0
 14 30  1  0
 15 31  1  0
 18 32  1  0
 19 33  1  0
 20 34  1  0
 22 35  1  0
M  END
>  <Energy>  (544) 
1203.3385109292117

>  <compound_id>  (544) 
46519

>  <target_id>  (544) 
1

>  <reference_id>  (544) 
80

>  <inspiration_ids>  (544) 
[80, 68]

>  <energy_score>  (544) 
1177.9228127633814

>  <distance_score>  (544) 
18.307048706895632

>  <path>  (544) 
/opt/xchem-fragalysis-2/maxwin/BulkDock/SCRATCH/511023/C46519-P80/C46519-P80.minimised.mol

>  <scratch_subdir>  (544) 
/opt/xchem-fragalysis-2/maxwin/BulkDock/SCRATCH/511023/C46519-P80

>  <fragmenstein_runtime>  (544) 
10.656702518463135

>  <fragmenstein_outcome>  (544) 
too moved

>  <fragmenstein_mode>  (544) 
expansion

>  <fragmenstein_error>  (544) 


$$$$
C46519-P68
     RDKit          3D

 35 37  0  0  0  0  0  0  0  0999 V2000
    4.1142   -7.4196   18.3721 O   0  0  0  0  0  0  0  0  0  0  0  0
    3.9154   -7.7340   17.2078 C   0  0  0  0  0  0  0  0  0  0  0  0
    3.7567   -6.7952   16.2368 O   0  0  0  0  0  0  0  0  0  0  0  0
    3.8455   -9.1079   16.7247 C   0  0  0  0  0  0  0  0  0  0  0  0
    4.0526   -9.6373   15.4411 C   0  0  0  0  0  0  0  0  0  0  0  0
    3.8806  -11.1137   15.6397 N   0  0  0  0  0  0  0  0  0  0  0  0
    3.5326  -11.5852   17.0882 C   0  0  0  0  0  0  0  0  0  0  0  0
    3.5075  -13.4020   17.9936 C   0  0  0  0  0  0  0  0  0  0  0  0
    3.8981  -15.2892   17.7453 N   0  0  0  0  0  0  0  0  0  0  0  0
    2.7399  -16.8086   17.3441 S   0  0  0  0  0  0  0  0  0  0  0  0
    1.5312  -16.6456   18.1464 O   0  0  0  0  0  0  0  0  0  0  0  0
    2.8739  -16.7186   15.9274 O   0  0  0  0  0  0  0  0  0  0  0  0
    2.8328  -18.9375   17.2285 C   0  0  0  0  0  0  0  0  0  0  0  0
    3.4524  -19.6572   16.2167 C   0  0  0  0  0  0  0  0  0  0  0  0
    3.2210  -21.1022   16.0788 C   0  0  0  0  0  0  0  0  0  0  0  0
    2.3242  -21.8930   16.8500 C   0  0  0  0  0  0  0  0  0  0  0  0
    2.1435  -23.2479   16.7114 N   0  0  0  0  0  0  0  0  0  0  0  0
    1.2102  -23.8803   17.4717 C   0  0  0  0  0  0  0  0  0  0  0  0
    0.4158  -23.2267   18.3863 C   0  0  0  0  0  0  0  0  0  0  0  0
    0.6106  -21.8497   18.5260 C   0  0  0  0  0  0  0  0  0  0  0  0
    1.5827  -21.1602   17.7608 C   0  0  0  0  0  0  0  0  0  0  0  0
    1.8340  -19.7405   17.8655 C   0  0  0  0  0  0  0  0  0  0  0  0
    3.3180  -10.2481   17.5133 N   0  0  0  0  0  0  0  0  0  0  0  0
    3.5272   -7.1933   15.3779 H   0  0  0  0  0  0  0  0  0  0  0  0
    4.4082   -9.2839   14.4825 H   0  0  0  0  0  0  0  0  0  0  0  0
    4.4651  -11.7052   15.0923 H   0  0  0  0  0  0  0  0  0  0  0  0
    2.4546  -13.7331   17.8932 H   0  0  0  0  0  0  0  0  0  0  0  0
    4.0070  -13.2704   18.9631 H   0  0  0  0  0  0  0  0  0  0  0  0
    4.4144  -15.2760   16.8800 H   0  0  0  0  0  0  0  0  0  0  0  0
    4.0956  -19.1545   15.4992 H   0  0  0  0  0  0  0  0  0  0  0  0
    3.7663  -21.6154   15.2855 H   0  0  0  0  0  0  0  0  0  0  0  0
    1.1247  -24.9493   17.3049 H   0  0  0  0  0  0  0  0  0  0  0  0
   -0.3228  -23.7566   18.9743 H   0  0  0  0  0  0  0  0  0  0  0  0
    0.0063  -21.3040   19.2467 H   0  0  0  0  0  0  0  0  0  0  0  0
    1.1837  -19.2279   18.5019 H   0  0  0  0  0  0  0  0  0  0  0  0
  1  2  2  0
  2  3  1  0
  2  4  1  0
  4  5  2  0
  5  6  1  0
  6  7  1  0
  7  8  1  0
  8  9  1  0
  9 10  1  0
 10 11  2  0
 10 12  2  0
 10 13  1  0
 13 14  2  0
 14 15  1  0
 15 16  2  0
 16 17  1  0
 17 18  2  0
 18 19  1  0
 19 20  2  0
 20 21  1  0
 21 22  2  0
  7 23  2  0
 23  4  1  0
 22 13  1  0
 21 16  1  0
  3 24  1  0
  5 25  1  0
  6 26  1  0
  8 27  1  0
  8 28  1  0
  9 29  1  0
 14 30  1  0
 15 31  1  0
 18 32  1  0
 19 33  1  0
 20 34  1  0
 22 35  1  0
M  END
>  <Energy>  (545) 
334.67494077158324

>  <compound_id>  (545) 
46519

>  <target_id>  (545) 
1

>  <reference_id>  (545) 
68

>  <inspiration_ids>  (545) 
[80, 68]

>  <energy_score>  (545) 
309.2592426057373

>  <distance_score>  (545) 
18.3015625217815

>  <path>  (545) 
/opt/xchem-fragalysis-2/maxwin/BulkDock/SCRATCH/511023/C46519-P68/C46519-P68.minimised.mol

>  <scratch_subdir>  (545) 
/opt/xchem-fragalysis-2/maxwin/BulkDock/SCRATCH/511023/C46519-P68

>  <fragmenstein_runtime>  (545) 
20.68100929260254

>  <fragmenstein_outcome>  (545) 
too moved

>  <fragmenstein_mode>  (545) 
expansion

>  <fragmenstein_error>  (545) 


$$$$
C46521-P80
     RDKit          3D

 33 36  0  0  0  0  0  0  0  0999 V2000
    2.0557  -21.4966   16.9479 C   0  0  0  0  0  0  0  0  0  0  0  0
    1.1041  -22.4896   17.0839 C   0  0  0  0  0  0  0  0  0  0  0  0
    1.1365  -22.9209   18.4002 N   0  0  0  0  0  0  0  0  0  0  0  0
    0.2636  -23.9366   19.0657 C   0  0  0  0  0  0  0  0  0  0  0  0
    0.3511  -24.2343   20.4127 C   0  0  0  0  0  0  0  0  0  0  0  0
   -0.7513  -25.4490   20.9456 S   0  0  0  0  0  0  0  0  0  0  0  0
   -1.4334  -25.6807   19.3849 C   0  0  0  0  0  0  0  0  0  0  0  0
   -2.5237  -26.8340   19.1424 C   0  0  0  0  0  0  0  0  0  0  0  0
   -3.3562  -27.3734   20.2680 N   0  0  0  0  0  0  0  0  0  0  0  0
   -4.0410  -28.6229   20.1963 C   0  0  0  0  0  0  0  0  0  0  0  0
   -4.3236  -29.2701   18.9529 C   0  0  0  0  0  0  0  0  0  0  0  0
   -5.0120  -30.5120   18.8045 C   0  0  0  0  0  0  0  0  0  0  0  0
   -5.4784  -31.1067   19.9943 C   0  0  0  0  0  0  0  0  0  0  0  0
   -6.1211  -32.2770   20.1185 N   0  0  0  0  0  0  0  0  0  0  0  0
   -6.5514  -32.5070   21.7010 S   0  0  0  0  0  0  0  0  0  0  0  0
   -5.8092  -31.0898   22.3129 C   0  0  0  0  0  0  0  0  0  0  0  0
   -5.2520  -30.4096   21.2582 C   0  0  0  0  0  0  0  0  0  0  0  0
   -4.5631  -29.1827   21.4009 C   0  0  0  0  0  0  0  0  0  0  0  0
   -0.7996  -24.7851   18.4814 C   0  0  0  0  0  0  0  0  0  0  0  0
    2.1958  -22.1951   18.9507 C   0  0  0  0  0  0  0  0  0  0  0  0
    2.7596  -21.3569   18.1026 N   0  0  0  0  0  0  0  0  0  0  0  0
    2.2762  -20.9019   16.0696 H   0  0  0  0  0  0  0  0  0  0  0  0
    0.4070  -22.9103   16.3782 H   0  0  0  0  0  0  0  0  0  0  0  0
    1.0125  -23.8020   21.1509 H   0  0  0  0  0  0  0  0  0  0  0  0
   -1.9476  -27.6615   18.7073 H   0  0  0  0  0  0  0  0  0  0  0  0
   -3.2036  -26.4524   18.3707 H   0  0  0  0  0  0  0  0  0  0  0  0
   -2.8822  -27.2648   21.1621 H   0  0  0  0  0  0  0  0  0  0  0  0
   -3.9845  -28.8036   18.0294 H   0  0  0  0  0  0  0  0  0  0  0  0
   -5.1746  -30.9701   17.8381 H   0  0  0  0  0  0  0  0  0  0  0  0
   -5.8326  -30.8491   23.3644 H   0  0  0  0  0  0  0  0  0  0  0  0
   -4.4306  -28.6992   22.3609 H   0  0  0  0  0  0  0  0  0  0  0  0
   -1.0604  -24.7623   17.4297 H   0  0  0  0  0  0  0  0  0  0  0  0
    2.4987  -22.3242   19.9796 H   0  0  0  0  0  0  0  0  0  0  0  0
  1  2  2  0
  2  3  1  0
  3  4  1  0
  4  5  2  0
  5  6  1  0
  6  7  1  0
  7  8  1  0
  8  9  1  0
  9 10  1  0
 10 11  1  0
 11 12  2  0
 12 13  1  0
 13 14  2  0
 14 15  1  0
 15 16  1  0
 16 17  2  0
 17 18  1  0
  7 19  2  0
  3 20  1  0
 20 21  2  0
 21  1  1  0
 19  4  1  0
 18 10  2  0
 17 13  1  0
  1 22  1  0
  2 23  1  0
  5 24  1  0
  8 25  1  0
  8 26  1  0
  9 27  1  0
 11 28  1  0
 12 29  1  0
 16 30  1  0
 18 31  1  0
 19 32  1  0
 20 33  1  0
M  END
>  <Energy>  (546) 
49.356842167610061

>  <compound_id>  (546) 
46521

>  <target_id>  (546) 
1

>  <reference_id>  (546) 
80

>  <inspiration_ids>  (546) 
[80, 68]

>  <energy_score>  (546) 
-56.752712363268984

>  <distance_score>  (546) 
14.844502030865009

>  <path>  (546) 
/opt/xchem-fragalysis-2/maxwin/BulkDock/SCRATCH/511023/C46521-P80/C46521-P80.minimised.mol

>  <scratch_subdir>  (546) 
/opt/xchem-fragalysis-2/maxwin/BulkDock/SCRATCH/511023/C46521-P80

>  <fragmenstein_runtime>  (546) 
9.458018064498901

>  <fragmenstein_outcome>  (546) 
too moved

>  <fragmenstein_mode>  (546) 
expansion

>  <fragmenstein_error>  (546) 


$$$$
C46521-P68
     RDKit          3D

 33 36  0  0  0  0  0  0  0  0999 V2000
   -5.0032  -16.6700   21.7923 C   0  0  0  0  0  0  0  0  0  0  0  0
   -5.0409  -17.9625   22.2665 C   0  0  0  0  0  0  0  0  0  0  0  0
   -5.5243  -18.7443   21.2335 N   0  0  0  0  0  0  0  0  0  0  0  0
   -5.8914  -20.1627   21.2704 C   0  0  0  0  0  0  0  0  0  0  0  0
   -6.3836  -20.8532   20.1799 C   0  0  0  0  0  0  0  0  0  0  0  0
   -6.7559  -22.4980   20.5175 S   0  0  0  0  0  0  0  0  0  0  0  0
   -6.2761  -22.3706   22.1572 C   0  0  0  0  0  0  0  0  0  0  0  0
   -6.3208  -23.5994   23.1115 C   0  0  0  0  0  0  0  0  0  0  0  0
   -7.1039  -24.8120   22.7506 N   0  0  0  0  0  0  0  0  0  0  0  0
   -7.1626  -25.7878   23.7997 C   0  0  0  0  0  0  0  0  0  0  0  0
   -5.9706  -26.4843   24.1803 C   0  0  0  0  0  0  0  0  0  0  0  0
   -5.8784  -27.3752   25.2763 C   0  0  0  0  0  0  0  0  0  0  0  0
   -7.0651  -27.5141   26.0205 C   0  0  0  0  0  0  0  0  0  0  0  0
   -7.2272  -28.1796   27.1706 N   0  0  0  0  0  0  0  0  0  0  0  0
   -8.7885  -28.0527   27.6977 S   0  0  0  0  0  0  0  0  0  0  0  0
   -9.3585  -27.1254   26.3793 C   0  0  0  0  0  0  0  0  0  0  0  0
   -8.2899  -26.8644   25.5573 C   0  0  0  0  0  0  0  0  0  0  0  0
   -8.3983  -26.0210   24.4478 C   0  0  0  0  0  0  0  0  0  0  0  0
   -5.8311  -21.0611   22.4161 C   0  0  0  0  0  0  0  0  0  0  0  0
   -5.6388  -17.8666   20.1626 C   0  0  0  0  0  0  0  0  0  0  0  0
   -5.3284  -16.6285   20.4753 N   0  0  0  0  0  0  0  0  0  0  0  0
   -4.7745  -15.7667   22.3376 H   0  0  0  0  0  0  0  0  0  0  0  0
   -4.8371  -18.3722   23.2432 H   0  0  0  0  0  0  0  0  0  0  0  0
   -6.5577  -20.4932   19.1751 H   0  0  0  0  0  0  0  0  0  0  0  0
   -6.6965  -23.2191   24.0717 H   0  0  0  0  0  0  0  0  0  0  0  0
   -5.2732  -23.8895   23.2659 H   0  0  0  0  0  0  0  0  0  0  0  0
   -8.0474  -24.5407   22.4658 H   0  0  0  0  0  0  0  0  0  0  0  0
   -5.0654  -26.3090   23.5976 H   0  0  0  0  0  0  0  0  0  0  0  0
   -4.9532  -27.8601   25.5579 H   0  0  0  0  0  0  0  0  0  0  0  0
  -10.3830  -26.7915   26.3161 H   0  0  0  0  0  0  0  0  0  0  0  0
   -9.3147  -25.5383   24.1373 H   0  0  0  0  0  0  0  0  0  0  0  0
   -5.4741  -20.7638   23.3954 H   0  0  0  0  0  0  0  0  0  0  0  0
   -5.9636  -18.1940   19.1848 H   0  0  0  0  0  0  0  0  0  0  0  0
  1  2  2  0
  2  3  1  0
  3  4  1  0
  4  5  2  0
  5  6  1  0
  6  7  1  0
  7  8  1  0
  8  9  1  0
  9 10  1  0
 10 11  1  0
 11 12  2  0
 12 13  1  0
 13 14  2  0
 14 15  1  0
 15 16  1  0
 16 17  2  0
 17 18  1  0
  7 19  2  0
  3 20  1  0
 20 21  2  0
 21  1  1  0
 19  4  1  0
 18 10  2  0
 17 13  1  0
  1 22  1  0
  2 23  1  0
  5 24  1  0
  8 25  1  0
  8 26  1  0
  9 27  1  0
 11 28  1  0
 12 29  1  0
 16 30  1  0
 18 31  1  0
 19 32  1  0
 20 33  1  0
M  END
>  <Energy>  (547) 
44.16054725710412

>  <compound_id>  (547) 
46521

>  <target_id>  (547) 
1

>  <reference_id>  (547) 
68

>  <inspiration_ids>  (547) 
[80, 68]

>  <energy_score>  (547) 
-61.949007273772224

>  <distance_score>  (547) 
16.015060581937178

>  <path>  (547) 
/opt/xchem-fragalysis-2/maxwin/BulkDock/SCRATCH/511023/C46521-P68/C46521-P68.minimised.mol

>  <scratch_subdir>  (547) 
/opt/xchem-fragalysis-2/maxwin/BulkDock/SCRATCH/511023/C46521-P68

>  <fragmenstein_runtime>  (547) 
14.996435165405273

>  <fragmenstein_outcome>  (547) 
too moved

>  <fragmenstein_mode>  (547) 
expansion

>  <fragmenstein_error>  (547) 


$$$$
C46522-P80
     RDKit          3D

 46 50  0  0  0  0  0  0  0  0999 V2000
    3.5983  -11.7898   17.3873 C   0  0  0  0  0  0  0  0  0  0  0  0
    3.8283  -13.1261   18.4786 N   0  0  0  0  0  0  0  0  0  0  0  0
    4.0156  -14.5178   18.0639 C   0  0  0  0  0  0  0  0  0  0  0  0
    2.7794  -15.1524   17.8368 C   0  0  0  0  0  0  0  0  0  0  0  0
    2.6082  -15.7508   16.7857 O   0  0  0  0  0  0  0  0  0  0  0  0
    2.0036  -15.1114   18.9093 N   0  0  0  0  0  0  0  0  0  0  0  0
    0.7073  -16.3199   19.4661 C   0  0  0  0  0  0  0  0  0  0  0  0
   -0.6275  -16.5167   20.4210 C   0  0  0  0  0  0  0  0  0  0  0  0
   -1.6075  -17.8458   20.3449 N   0  0  0  0  0  0  0  0  0  0  0  0
   -2.7643  -17.5053   19.5694 C   0  0  0  0  0  0  0  0  0  0  0  0
   -3.9060  -18.0344   20.0945 C   0  0  0  0  0  0  0  0  0  0  0  0
   -3.6520  -18.6738   21.2417 N   0  0  0  0  0  0  0  0  0  0  0  0
   -2.3534  -18.9734   21.2158 C   0  0  0  0  0  0  0  0  0  0  0  0
   -2.2573  -20.5605   21.4952 C   0  0  0  0  0  0  0  0  0  0  0  0
   -1.6194  -21.1439   22.5922 C   0  0  0  0  0  0  0  0  0  0  0  0
   -1.8084  -22.5271   22.9389 C   0  0  0  0  0  0  0  0  0  0  0  0
   -2.6536  -23.4076   22.2552 C   0  0  0  0  0  0  0  0  0  0  0  0
   -2.8070  -24.7025   22.6512 N   0  0  0  0  0  0  0  0  0  0  0  0
   -3.6452  -25.5009   21.9489 C   0  0  0  0  0  0  0  0  0  0  0  0
   -4.3554  -25.0625   20.8504 C   0  0  0  0  0  0  0  0  0  0  0  0
   -4.1935  -23.7280   20.4563 C   0  0  0  0  0  0  0  0  0  0  0  0
   -3.3292  -22.8600   21.1559 C   0  0  0  0  0  0  0  0  0  0  0  0
   -3.1283  -21.4684   20.8039 C   0  0  0  0  0  0  0  0  0  0  0  0
    0.7637  -15.8268   20.9758 C   0  0  0  0  0  0  0  0  0  0  0  0
    2.2861  -14.6119   20.2111 C   0  0  0  0  0  0  0  0  0  0  0  0
    3.8260  -13.2908   19.9159 C   0  0  0  0  0  0  0  0  0  0  0  0
    4.6029  -12.6801   20.6328 O   0  0  0  0  0  0  0  0  0  0  0  0
    3.2762  -10.7553   17.5588 H   0  0  0  0  0  0  0  0  0  0  0  0
    4.2365  -11.8931   16.5483 H   0  0  0  0  0  0  0  0  0  0  0  0
    2.8612  -11.7735   16.6277 H   0  0  0  0  0  0  0  0  0  0  0  0
    4.6342  -14.8679   17.2917 H   0  0  0  0  0  0  0  0  0  0  0  0
    4.5945  -15.1913   18.6369 H   0  0  0  0  0  0  0  0  0  0  0  0
    0.9093  -17.2569   18.8540 H   0  0  0  0  0  0  0  0  0  0  0  0
   -0.0659  -15.5341   19.2285 H   0  0  0  0  0  0  0  0  0  0  0  0
   -1.4366  -15.7896   20.2013 H   0  0  0  0  0  0  0  0  0  0  0  0
   -2.7196  -16.6708   18.9132 H   0  0  0  0  0  0  0  0  0  0  0  0
   -4.9238  -17.8795   19.7671 H   0  0  0  0  0  0  0  0  0  0  0  0
   -0.9722  -20.5416   23.2250 H   0  0  0  0  0  0  0  0  0  0  0  0
   -1.2712  -22.9153   23.8039 H   0  0  0  0  0  0  0  0  0  0  0  0
   -3.7288  -26.5224   22.3075 H   0  0  0  0  0  0  0  0  0  0  0  0
   -5.0196  -25.7302   20.3136 H   0  0  0  0  0  0  0  0  0  0  0  0
   -4.7471  -23.3616   19.5948 H   0  0  0  0  0  0  0  0  0  0  0  0
   -3.7103  -21.0679   19.9726 H   0  0  0  0  0  0  0  0  0  0  0  0
    0.8576  -16.9464   21.1192 H   0  0  0  0  0  0  0  0  0  0  0  0
    0.4256  -15.3253   21.8781 H   0  0  0  0  0  0  0  0  0  0  0  0
    2.7563  -14.6612   21.1653 H   0  0  0  0  0  0  0  0  0  0  0  0
  1  2  1  0
  2  3  1  0
  3  4  1  0
  4  5  2  0
  4  6  1  0
  6  7  1  0
  7  8  1  0
  8  9  1  0
  9 10  1  0
 10 11  2  0
 11 12  1  0
 12 13  2  0
 13 14  1  0
 14 15  2  0
 15 16  1  0
 16 17  2  0
 17 18  1  0
 18 19  2  0
 19 20  1  0
 20 21  2  0
 21 22  1  0
 22 23  2  0
  8 24  1  0
 24 25  1  0
 25 26  1  0
 26 27  2  0
 26  2  1  0
 25  6  1  0
 13  9  1  0
 23 14  1  0
 22 17  1  0
  1 28  1  0
  1 29  1  0
  1 30  1  0
  3 31  1  0
  3 32  1  0
  7 33  1  0
  7 34  1  0
  8 35  1  0
 10 36  1  0
 11 37  1  0
 15 38  1  0
 16 39  1  0
 19 40  1  0
 20 41  1  0
 21 42  1  0
 23 43  1  0
 24 44  1  0
 24 45  1  0
 25 46  1  0
M  END
>  <Energy>  (548) 
859.15078774957055

>  <compound_id>  (548) 
46522

>  <target_id>  (548) 
1

>  <reference_id>  (548) 
80

>  <inspiration_ids>  (548) 
[80, 68]

>  <energy_score>  (548) 
714.1527736572066

>  <distance_score>  (548) 
15.498840124162589

>  <path>  (548) 
/opt/xchem-fragalysis-2/maxwin/BulkDock/SCRATCH/511023/C46522-P80/C46522-P80.minimised.mol

>  <scratch_subdir>  (548) 
/opt/xchem-fragalysis-2/maxwin/BulkDock/SCRATCH/511023/C46522-P80

>  <fragmenstein_runtime>  (548) 
19.400612831115723

>  <fragmenstein_outcome>  (548) 
too moved

>  <fragmenstein_mode>  (548) 
expansion

>  <fragmenstein_error>  (548) 


$$$$
C46522-P68
     RDKit          3D

 46 50  0  0  0  0  0  0  0  0999 V2000
    4.1943  -10.0601    9.5189 C   0  0  0  0  0  0  0  0  0  0  0  0
    2.9138  -10.5342   10.0043 N   0  0  0  0  0  0  0  0  0  0  0  0
    1.8113   -9.5768   10.0384 C   0  0  0  0  0  0  0  0  0  0  0  0
    0.7564  -10.0229   11.0519 C   0  0  0  0  0  0  0  0  0  0  0  0
   -0.0635   -9.2414   11.5224 O   0  0  0  0  0  0  0  0  0  0  0  0
    0.8078  -11.3829   11.3149 N   0  0  0  0  0  0  0  0  0  0  0  0
    0.2228  -12.0536   12.4540 C   0  0  0  0  0  0  0  0  0  0  0  0
    0.2188  -13.5731   12.3930 C   0  0  0  0  0  0  0  0  0  0  0  0
   -0.7975  -14.3079   13.2233 N   0  0  0  0  0  0  0  0  0  0  0  0
   -1.2310  -13.5257   14.1810 C   0  0  0  0  0  0  0  0  0  0  0  0
   -1.4691  -13.7124   16.0201 C   0  0  0  0  0  0  0  0  0  0  0  0
   -0.6957  -14.5381   15.9207 N   0  0  0  0  0  0  0  0  0  0  0  0
   -1.7885  -14.9747   14.7852 C   0  0  0  0  0  0  0  0  0  0  0  0
   -3.1556  -16.4088   15.0196 C   0  0  0  0  0  0  0  0  0  0  0  0
   -3.2603  -17.8081   14.4788 C   0  0  0  0  0  0  0  0  0  0  0  0
   -3.9888  -19.0047   14.9344 C   0  0  0  0  0  0  0  0  0  0  0  0
   -4.7261  -19.0722   16.0803 C   0  0  0  0  0  0  0  0  0  0  0  0
   -5.2621  -20.2654   16.4803 N   0  0  0  0  0  0  0  0  0  0  0  0
   -5.9223  -20.2980   17.6483 C   0  0  0  0  0  0  0  0  0  0  0  0
   -6.0997  -19.1639   18.4093 C   0  0  0  0  0  0  0  0  0  0  0  0
   -5.5438  -17.9456   17.9535 C   0  0  0  0  0  0  0  0  0  0  0  0
   -4.7858  -17.8550   16.7596 C   0  0  0  0  0  0  0  0  0  0  0  0
   -4.0081  -16.6220   16.2396 C   0  0  0  0  0  0  0  0  0  0  0  0
    0.3668  -13.6638   10.7933 C   0  0  0  0  0  0  0  0  0  0  0  0
    1.0695  -12.2983   10.2495 C   0  0  0  0  0  0  0  0  0  0  0  0
    2.5984  -11.9097    9.8607 C   0  0  0  0  0  0  0  0  0  0  0  0
    3.4306  -12.6684    9.3703 O   0  0  0  0  0  0  0  0  0  0  0  0
    4.4673   -9.1443   10.0504 H   0  0  0  0  0  0  0  0  0  0  0  0
    4.9733  -10.8094    9.6865 H   0  0  0  0  0  0  0  0  0  0  0  0
    4.1148   -9.8604    8.4463 H   0  0  0  0  0  0  0  0  0  0  0  0
    1.3596   -9.5103    9.0441 H   0  0  0  0  0  0  0  0  0  0  0  0
    2.1969   -8.6028   10.3550 H   0  0  0  0  0  0  0  0  0  0  0  0
   -0.6967  -11.5471   12.5142 H   0  0  0  0  0  0  0  0  0  0  0  0
    0.8294  -11.8800   13.3288 H   0  0  0  0  0  0  0  0  0  0  0  0
    1.1489  -13.9617   12.7345 H   0  0  0  0  0  0  0  0  0  0  0  0
   -2.7153  -13.9143   13.8716 H   0  0  0  0  0  0  0  0  0  0  0  0
   -1.9138  -13.1801   16.8615 H   0  0  0  0  0  0  0  0  0  0  0  0
   -2.6013  -18.2417   13.7356 H   0  0  0  0  0  0  0  0  0  0  0  0
   -3.8432  -19.9285   14.3712 H   0  0  0  0  0  0  0  0  0  0  0  0
   -6.3178  -21.2620   17.9474 H   0  0  0  0  0  0  0  0  0  0  0  0
   -6.6475  -19.2015   19.3440 H   0  0  0  0  0  0  0  0  0  0  0  0
   -5.6686  -17.0618   18.5733 H   0  0  0  0  0  0  0  0  0  0  0  0
   -3.9483  -15.8406   16.9905 H   0  0  0  0  0  0  0  0  0  0  0  0
    0.8878  -14.5669   10.4664 H   0  0  0  0  0  0  0  0  0  0  0  0
   -0.6458  -13.7115   10.3714 H   0  0  0  0  0  0  0  0  0  0  0  0
    0.4934  -11.9968    9.3626 H   0  0  0  0  0  0  0  0  0  0  0  0
  1  2  1  0
  2  3  1  0
  3  4  1  0
  4  5  2  0
  4  6  1  0
  6  7  1  0
  7  8  1  0
  8  9  1  0
  9 10  1  0
 10 11  2  0
 11 12  1  0
 12 13  2  0
 13 14  1  0
 14 15  2  0
 15 16  1  0
 16 17  2  0
 17 18  1  0
 18 19  2  0
 19 20  1  0
 20 21  2  0
 21 22  1  0
 22 23  2  0
  8 24  1  0
 24 25  1  0
 25 26  1  0
 26 27  2  0
 26  2  1  0
 25  6  1  0
 13  9  1  0
 23 14  1  0
 22 17  1  0
  1 28  1  0
  1 29  1  0
  1 30  1  0
  3 31  1  0
  3 32  1  0
  7 33  1  0
  7 34  1  0
  8 35  1  0
 10 36  1  0
 11 37  1  0
 15 38  1  0
 16 39  1  0
 19 40  1  0
 20 41  1  0
 21 42  1  0
 23 43  1  0
 24 44  1  0
 24 45  1  0
 25 46  1  0
M  END
>  <Energy>  (549) 
845.04959190285274

>  <compound_id>  (549) 
46522

>  <target_id>  (549) 
1

>  <reference_id>  (549) 
68

>  <inspiration_ids>  (549) 
[80, 68]

>  <energy_score>  (549) 
700.0515778104684

>  <distance_score>  (549) 
18.962600872002536

>  <path>  (549) 
/opt/xchem-fragalysis-2/maxwin/BulkDock/SCRATCH/511023/C46522-P68/C46522-P68.minimised.mol

>  <scratch_subdir>  (549) 
/opt/xchem-fragalysis-2/maxwin/BulkDock/SCRATCH/511023/C46522-P68

>  <fragmenstein_runtime>  (549) 
29.637282371520996

>  <fragmenstein_outcome>  (549) 
too moved

>  <fragmenstein_mode>  (549) 
expansion

>  <fragmenstein_error>  (549) 


$$$$
C46524-P80
     RDKit          3D

 36 38  0  0  0  0  0  0  0  0999 V2000
    8.1388  -18.3408   15.1207 C   0  0  0  0  0  0  0  0  0  0  0  0
    6.9440  -17.5937   14.8050 N   0  0  0  0  0  0  0  0  0  0  0  0
    6.8841  -16.2251   14.7263 C   0  0  0  0  0  0  0  0  0  0  0  0
    5.7094  -15.8289   14.3049 N   0  0  0  0  0  0  0  0  0  0  0  0
    4.9964  -16.9952   14.0979 C   0  0  0  0  0  0  0  0  0  0  0  0
    5.6949  -18.1327   14.4833 C   0  0  0  0  0  0  0  0  0  0  0  0
    5.3635  -19.6643   14.4557 C   0  0  0  0  0  0  0  0  0  0  0  0
    3.9453  -20.2799   14.9910 C   0  0  0  0  0  0  0  0  0  0  0  0
    3.8298  -21.8329   15.1602 N   0  0  0  0  0  0  0  0  0  0  0  0
    2.7106  -22.2417   16.1240 C   0  0  0  0  0  0  0  0  0  0  0  0
    2.2241  -23.7827   16.4046 C   0  0  0  0  0  0  0  0  0  0  0  0
    3.1466  -24.9154   16.2535 C   0  0  0  0  0  0  0  0  0  0  0  0
    2.7978  -26.1651   16.6386 C   0  0  0  0  0  0  0  0  0  0  0  0
    1.5476  -26.4273   17.2007 N   0  0  0  0  0  0  0  0  0  0  0  0
    1.0627  -27.6198   17.6457 N   0  0  0  0  0  0  0  0  0  0  0  0
   -0.1376  -27.3319   18.1587 C   0  0  0  0  0  0  0  0  0  0  0  0
   -0.4691  -25.9760   17.9994 C   0  0  0  0  0  0  0  0  0  0  0  0
    0.6170  -25.4095   17.3645 C   0  0  0  0  0  0  0  0  0  0  0  0
    0.9917  -24.0855   16.9244 C   0  0  0  0  0  0  0  0  0  0  0  0
    8.9920  -17.6600   15.1792 H   0  0  0  0  0  0  0  0  0  0  0  0
    7.9935  -18.8357   16.0836 H   0  0  0  0  0  0  0  0  0  0  0  0
    8.3104  -19.0747   14.3293 H   0  0  0  0  0  0  0  0  0  0  0  0
    7.7210  -15.5816   14.9644 H   0  0  0  0  0  0  0  0  0  0  0  0
    4.0094  -16.9637   13.6622 H   0  0  0  0  0  0  0  0  0  0  0  0
    6.1437  -20.1829   15.0267 H   0  0  0  0  0  0  0  0  0  0  0  0
    5.4766  -19.9911   13.4138 H   0  0  0  0  0  0  0  0  0  0  0  0
    3.1569  -19.9698   14.2948 H   0  0  0  0  0  0  0  0  0  0  0  0
    3.7026  -19.8327   15.9525 H   0  0  0  0  0  0  0  0  0  0  0  0
    3.5372  -22.1771   14.2413 H   0  0  0  0  0  0  0  0  0  0  0  0
    3.0254  -21.8530   17.0975 H   0  0  0  0  0  0  0  0  0  0  0  0
    1.8204  -21.6737   15.8363 H   0  0  0  0  0  0  0  0  0  0  0  0
    4.1247  -24.7093   15.8313 H   0  0  0  0  0  0  0  0  0  0  0  0
    3.4577  -27.0164   16.5470 H   0  0  0  0  0  0  0  0  0  0  0  0
   -0.7145  -28.1203   18.6265 H   0  0  0  0  0  0  0  0  0  0  0  0
   -1.3569  -25.4652   18.3241 H   0  0  0  0  0  0  0  0  0  0  0  0
    0.2726  -23.2991   17.0773 H   0  0  0  0  0  0  0  0  0  0  0  0
  1  2  1  0
  2  3  1  0
  3  4  2  0
  4  5  1  0
  5  6  2  0
  6  7  1  0
  7  8  1  0
  8  9  1  0
  9 10  1  0
 10 11  1  0
 11 12  1  0
 12 13  2  0
 13 14  1  0
 14 15  1  0
 15 16  2  0
 16 17  1  0
 17 18  2  0
 18 19  1  0
  6  2  1  0
 19 11  2  0
 18 14  1  0
  1 20  1  0
  1 21  1  0
  1 22  1  0
  3 23  1  0
  5 24  1  0
  7 25  1  0
  7 26  1  0
  8 27  1  0
  8 28  1  0
  9 29  1  0
 10 30  1  0
 10 31  1  0
 12 32  1  0
 13 33  1  0
 16 34  1  0
 17 35  1  0
 19 36  1  0
M  END
>  <Energy>  (550) 
68.154965183619922

>  <compound_id>  (550) 
46524

>  <target_id>  (550) 
1

>  <reference_id>  (550) 
80

>  <inspiration_ids>  (550) 
[80, 68]

>  <energy_score>  (550) 
-1.6361770556320607

>  <distance_score>  (550) 
16.36297846790712

>  <path>  (550) 
/opt/xchem-fragalysis-2/maxwin/BulkDock/SCRATCH/511023/C46524-P80/C46524-P80.minimised.mol

>  <scratch_subdir>  (550) 
/opt/xchem-fragalysis-2/maxwin/BulkDock/SCRATCH/511023/C46524-P80

>  <fragmenstein_runtime>  (550) 
7.453273296356201

>  <fragmenstein_outcome>  (550) 
too moved

>  <fragmenstein_mode>  (550) 
expansion

>  <fragmenstein_error>  (550) 


$$$$
C46524-P68
     RDKit          3D

 36 38  0  0  0  0  0  0  0  0999 V2000
    5.4372  -20.0697   21.7454 C   0  0  0  0  0  0  0  0  0  0  0  0
    3.7675  -19.6410   21.3057 N   0  0  0  0  0  0  0  0  0  0  0  0
    4.9872  -18.1282   20.7193 C   0  0  0  0  0  0  0  0  0  0  0  0
    4.2053  -17.4597   19.1953 N   0  0  0  0  0  0  0  0  0  0  0  0
    2.9246  -18.9251   18.3771 C   0  0  0  0  0  0  0  0  0  0  0  0
    2.5851  -20.2823   19.7456 C   0  0  0  0  0  0  0  0  0  0  0  0
    1.2785  -21.5960   19.7105 C   0  0  0  0  0  0  0  0  0  0  0  0
    1.0615  -23.4765   19.9231 C   0  0  0  0  0  0  0  0  0  0  0  0
    0.0805  -24.9200   19.6085 N   0  0  0  0  0  0  0  0  0  0  0  0
   -0.8713  -25.9576   20.7283 C   0  0  0  0  0  0  0  0  0  0  0  0
   -2.7241  -26.1800   21.0670 C   0  0  0  0  0  0  0  0  0  0  0  0
   -4.0216  -25.0052   21.6299 C   0  0  0  0  0  0  0  0  0  0  0  0
   -5.3085  -25.2845   22.0382 C   0  0  0  0  0  0  0  0  0  0  0  0
   -5.9416  -26.4270   21.5413 N   0  0  0  0  0  0  0  0  0  0  0  0
   -7.2644  -26.4593   21.2325 N   0  0  0  0  0  0  0  0  0  0  0  0
   -7.3667  -27.3280   20.2318 C   0  0  0  0  0  0  0  0  0  0  0  0
   -6.1313  -27.9428   19.9271 C   0  0  0  0  0  0  0  0  0  0  0  0
   -5.2230  -27.4238   20.8484 C   0  0  0  0  0  0  0  0  0  0  0  0
   -3.6054  -27.4268   20.9625 C   0  0  0  0  0  0  0  0  0  0  0  0
    6.2185  -19.7194   21.0632 H   0  0  0  0  0  0  0  0  0  0  0  0
    5.5519  -19.3808   22.5975 H   0  0  0  0  0  0  0  0  0  0  0  0
    5.5278  -21.1510   21.7113 H   0  0  0  0  0  0  0  0  0  0  0  0
    5.7503  -17.7363   21.4073 H   0  0  0  0  0  0  0  0  0  0  0  0
    2.5362  -18.7308   17.3830 H   0  0  0  0  0  0  0  0  0  0  0  0
    0.4880  -21.1588   20.3313 H   0  0  0  0  0  0  0  0  0  0  0  0
    1.0324  -21.5113   18.6455 H   0  0  0  0  0  0  0  0  0  0  0  0
    1.7665  -23.7565   19.1371 H   0  0  0  0  0  0  0  0  0  0  0  0
    1.3291  -23.7329   20.9279 H   0  0  0  0  0  0  0  0  0  0  0  0
   -0.5964  -24.5895   18.9331 H   0  0  0  0  0  0  0  0  0  0  0  0
   -0.6442  -26.8922   20.2085 H   0  0  0  0  0  0  0  0  0  0  0  0
   -0.2827  -26.1253   21.6310 H   0  0  0  0  0  0  0  0  0  0  0  0
   -4.0684  -24.1981   20.9666 H   0  0  0  0  0  0  0  0  0  0  0  0
   -6.0032  -24.4868   22.2795 H   0  0  0  0  0  0  0  0  0  0  0  0
   -8.3355  -27.4985   19.7773 H   0  0  0  0  0  0  0  0  0  0  0  0
   -5.9543  -28.6744   19.1515 H   0  0  0  0  0  0  0  0  0  0  0  0
   -3.1907  -28.4328   21.0687 H   0  0  0  0  0  0  0  0  0  0  0  0
  1  2  1  0
  2  3  1  0
  3  4  2  0
  4  5  1  0
  5  6  2  0
  6  7  1  0
  7  8  1  0
  8  9  1  0
  9 10  1  0
 10 11  1  0
 11 12  1  0
 12 13  2  0
 13 14  1  0
 14 15  1  0
 15 16  2  0
 16 17  1  0
 17 18  2  0
 18 19  1  0
  6  2  1  0
 19 11  2  0
 18 14  1  0
  1 20  1  0
  1 21  1  0
  1 22  1  0
  3 23  1  0
  5 24  1  0
  7 25  1  0
  7 26  1  0
  8 27  1  0
  8 28  1  0
  9 29  1  0
 10 30  1  0
 10 31  1  0
 12 32  1  0
 13 33  1  0
 16 34  1  0
 17 35  1  0
 19 36  1  0
M  END
>  <Energy>  (551) 
1136.3613076131574

>  <compound_id>  (551) 
46524

>  <target_id>  (551) 
1

>  <reference_id>  (551) 
68

>  <inspiration_ids>  (551) 
[80, 68]

>  <energy_score>  (551) 
1066.5701653738981

>  <distance_score>  (551) 
15.285010284238448

>  <path>  (551) 
/opt/xchem-fragalysis-2/maxwin/BulkDock/SCRATCH/511023/C46524-P68/C46524-P68.minimised.mol

>  <scratch_subdir>  (551) 
/opt/xchem-fragalysis-2/maxwin/BulkDock/SCRATCH/511023/C46524-P68

>  <fragmenstein_runtime>  (551) 
10.49935507774353

>  <fragmenstein_outcome>  (551) 
too moved

>  <fragmenstein_mode>  (551) 
expansion

>  <fragmenstein_error>  (551) 


$$$$
C46526-P80
     RDKit          3D

 34 36  0  0  0  0  0  0  0  0999 V2000
   -2.5581  -13.9645   21.9757 C   0  0  0  0  0  0  0  0  0  0  0  0
   -2.8195  -14.7158   20.7146 C   0  0  0  0  0  0  0  0  0  0  0  0
   -2.9963  -14.0486   19.5254 N   0  0  0  0  0  0  0  0  0  0  0  0
   -3.0270  -14.9785   18.5351 C   0  0  0  0  0  0  0  0  0  0  0  0
   -2.9419  -16.2123   19.0042 N   0  0  0  0  0  0  0  0  0  0  0  0
   -2.9069  -16.0844   20.3913 C   0  0  0  0  0  0  0  0  0  0  0  0
   -2.8416  -17.4457   21.5847 S   0  0  0  0  0  0  0  0  0  0  0  0
   -3.7059  -16.9305   22.6297 O   0  0  0  0  0  0  0  0  0  0  0  0
   -1.4099  -17.5164   21.8054 O   0  0  0  0  0  0  0  0  0  0  0  0
   -3.3396  -19.0339   21.2552 N   0  0  0  0  0  0  0  0  0  0  0  0
   -4.0271  -20.0515   22.1322 C   0  0  0  0  0  0  0  0  0  0  0  0
   -4.4603  -19.9514   23.2521 O   0  0  0  0  0  0  0  0  0  0  0  0
   -4.1495  -21.5353   21.6413 C   0  0  0  0  0  0  0  0  0  0  0  0
   -4.2344  -22.0008   20.3326 C   0  0  0  0  0  0  0  0  0  0  0  0
   -4.3808  -23.4024   20.0551 C   0  0  0  0  0  0  0  0  0  0  0  0
   -4.4191  -24.4058   21.0337 C   0  0  0  0  0  0  0  0  0  0  0  0
   -4.5000  -25.7204   20.7039 N   0  0  0  0  0  0  0  0  0  0  0  0
   -4.4656  -26.6449   21.6919 C   0  0  0  0  0  0  0  0  0  0  0  0
   -4.3851  -26.3140   23.0276 C   0  0  0  0  0  0  0  0  0  0  0  0
   -4.3337  -24.9583   23.3627 C   0  0  0  0  0  0  0  0  0  0  0  0
   -4.3374  -23.9678   22.3612 C   0  0  0  0  0  0  0  0  0  0  0  0
   -4.2266  -22.5629   22.6401 C   0  0  0  0  0  0  0  0  0  0  0  0
   -3.4888  -13.8700   22.5447 H   0  0  0  0  0  0  0  0  0  0  0  0
   -1.8325  -14.4882   22.6053 H   0  0  0  0  0  0  0  0  0  0  0  0
   -2.1845  -12.9554   21.7788 H   0  0  0  0  0  0  0  0  0  0  0  0
   -3.0294  -13.0466   19.3953 H   0  0  0  0  0  0  0  0  0  0  0  0
   -3.1114  -14.7056   17.4894 H   0  0  0  0  0  0  0  0  0  0  0  0
   -3.0310  -19.4846   20.3983 H   0  0  0  0  0  0  0  0  0  0  0  0
   -4.2163  -21.3116   19.4925 H   0  0  0  0  0  0  0  0  0  0  0  0
   -4.4452  -23.7164   19.0125 H   0  0  0  0  0  0  0  0  0  0  0  0
   -4.5190  -27.6797   21.3654 H   0  0  0  0  0  0  0  0  0  0  0  0
   -4.3665  -27.0836   23.7910 H   0  0  0  0  0  0  0  0  0  0  0  0
   -4.2672  -24.6756   24.4108 H   0  0  0  0  0  0  0  0  0  0  0  0
   -4.1671  -22.2634   23.6892 H   0  0  0  0  0  0  0  0  0  0  0  0
  1  2  1  0
  2  3  1  0
  3  4  1  0
  4  5  2  0
  5  6  1  0
  6  7  1  0
  7  8  2  0
  7  9  2  0
  7 10  1  0
 10 11  1  0
 11 12  2  0
 11 13  1  0
 13 14  2  0
 14 15  1  0
 15 16  2  0
 16 17  1  0
 17 18  2  0
 18 19  1  0
 19 20  2  0
 20 21  1  0
 21 22  2  0
  6  2  2  0
 22 13  1  0
 21 16  1  0
  1 23  1  0
  1 24  1  0
  1 25  1  0
  3 26  1  0
  4 27  1  0
 10 28  1  0
 14 29  1  0
 15 30  1  0
 18 31  1  0
 19 32  1  0
 20 33  1  0
 22 34  1  0
M  END
>  <Energy>  (552) 
49.974895832461826

>  <compound_id>  (552) 
46526

>  <target_id>  (552) 
1

>  <reference_id>  (552) 
80

>  <inspiration_ids>  (552) 
[80, 68]

>  <energy_score>  (552) 
-0.04616435427590204

>  <distance_score>  (552) 
16.30112882781718

>  <path>  (552) 
/opt/xchem-fragalysis-2/maxwin/BulkDock/SCRATCH/511023/C46526-P80/C46526-P80.minimised.mol

>  <scratch_subdir>  (552) 
/opt/xchem-fragalysis-2/maxwin/BulkDock/SCRATCH/511023/C46526-P80

>  <fragmenstein_runtime>  (552) 
16.78217315673828

>  <fragmenstein_outcome>  (552) 
too moved

>  <fragmenstein_mode>  (552) 
expansion

>  <fragmenstein_error>  (552) 


$$$$
C46526-P68
     RDKit          3D

 34 36  0  0  0  0  0  0  0  0999 V2000
    3.6179  -17.2978   16.5634 C   0  0  0  0  0  0  0  0  0  0  0  0
    3.7723  -18.4122   15.5997 C   0  0  0  0  0  0  0  0  0  0  0  0
    4.5800  -18.2025   14.5069 N   0  0  0  0  0  0  0  0  0  0  0  0
    4.5373  -19.3141   13.7329 C   0  0  0  0  0  0  0  0  0  0  0  0
    3.8311  -20.2741   14.2901 N   0  0  0  0  0  0  0  0  0  0  0  0
    3.3030  -19.7459   15.4720 C   0  0  0  0  0  0  0  0  0  0  0  0
    2.6066  -20.8199   16.7827 S   0  0  0  0  0  0  0  0  0  0  0  0
    1.9274  -19.8590   17.6346 O   0  0  0  0  0  0  0  0  0  0  0  0
    3.8575  -21.4576   17.1611 O   0  0  0  0  0  0  0  0  0  0  0  0
    1.6131  -22.2003   16.7307 N   0  0  0  0  0  0  0  0  0  0  0  0
    0.3299  -22.5206   17.4621 C   0  0  0  0  0  0  0  0  0  0  0  0
   -0.3428  -21.8388   18.1962 O   0  0  0  0  0  0  0  0  0  0  0  0
   -0.2488  -24.0002   17.4124 C   0  0  0  0  0  0  0  0  0  0  0  0
    0.3631  -25.1211   16.8534 C   0  0  0  0  0  0  0  0  0  0  0  0
   -0.1495  -26.4460   17.0684 C   0  0  0  0  0  0  0  0  0  0  0  0
   -1.2779  -26.7452   17.8378 C   0  0  0  0  0  0  0  0  0  0  0  0
   -1.6848  -28.0284   18.0174 N   0  0  0  0  0  0  0  0  0  0  0  0
   -2.8005  -28.2611   18.7467 C   0  0  0  0  0  0  0  0  0  0  0  0
   -3.5344  -27.2509   19.3332 C   0  0  0  0  0  0  0  0  0  0  0  0
   -3.0934  -25.9327   19.1607 C   0  0  0  0  0  0  0  0  0  0  0  0
   -1.9417  -25.6466   18.3984 C   0  0  0  0  0  0  0  0  0  0  0  0
   -1.4235  -24.3136   18.1830 C   0  0  0  0  0  0  0  0  0  0  0  0
    3.0837  -17.6288   17.4410 H   0  0  0  0  0  0  0  0  0  0  0  0
    4.5793  -16.8792   16.8434 H   0  0  0  0  0  0  0  0  0  0  0  0
    3.0277  -16.4894   16.1477 H   0  0  0  0  0  0  0  0  0  0  0  0
    5.1090  -17.3671   14.3085 H   0  0  0  0  0  0  0  0  0  0  0  0
    5.0531  -19.3871   12.7859 H   0  0  0  0  0  0  0  0  0  0  0  0
    1.9493  -23.0325   16.2680 H   0  0  0  0  0  0  0  0  0  0  0  0
    1.2750  -25.0302   16.2704 H   0  0  0  0  0  0  0  0  0  0  0  0
    0.3856  -27.2820   16.6169 H   0  0  0  0  0  0  0  0  0  0  0  0
   -3.0951  -29.3032   18.8340 H   0  0  0  0  0  0  0  0  0  0  0  0
   -4.4303  -27.4740   19.9006 H   0  0  0  0  0  0  0  0  0  0  0  0
   -3.6572  -25.1224   19.6173 H   0  0  0  0  0  0  0  0  0  0  0  0
   -1.9482  -23.4898   18.6721 H   0  0  0  0  0  0  0  0  0  0  0  0
  1  2  1  0
  2  3  1  0
  3  4  1  0
  4  5  2  0
  5  6  1  0
  6  7  1  0
  7  8  2  0
  7  9  2  0
  7 10  1  0
 10 11  1  0
 11 12  2  0
 11 13  1  0
 13 14  2  0
 14 15  1  0
 15 16  2  0
 16 17  1  0
 17 18  2  0
 18 19  1  0
 19 20  2  0
 20 21  1  0
 21 22  2  0
  6  2  2  0
 22 13  1  0
 21 16  1  0
  1 23  1  0
  1 24  1  0
  1 25  1  0
  3 26  1  0
  4 27  1  0
 10 28  1  0
 14 29  1  0
 15 30  1  0
 18 31  1  0
 19 32  1  0
 20 33  1  0
 22 34  1  0
M  END
>  <Energy>  (553) 
68.144364364413107

>  <compound_id>  (553) 
46526

>  <target_id>  (553) 
1

>  <reference_id>  (553) 
68

>  <inspiration_ids>  (553) 
[80, 68]

>  <energy_score>  (553) 
18.123304177682314

>  <distance_score>  (553) 
16.208630601439655

>  <path>  (553) 
/opt/xchem-fragalysis-2/maxwin/BulkDock/SCRATCH/511023/C46526-P68/C46526-P68.minimised.mol

>  <scratch_subdir>  (553) 
/opt/xchem-fragalysis-2/maxwin/BulkDock/SCRATCH/511023/C46526-P68

>  <fragmenstein_runtime>  (553) 
18.56385111808777

>  <fragmenstein_outcome>  (553) 
too moved

>  <fragmenstein_mode>  (553) 
expansion

>  <fragmenstein_error>  (553) 


$$$$
C46527-P80
     RDKit          3D

 38 41  0  0  0  0  0  0  0  0999 V2000
    4.2282  -13.7684   18.9295 O   0  0  0  0  0  0  0  0  0  0  0  0
    3.4496  -13.6753   18.0339 C   0  0  0  0  0  0  0  0  0  0  0  0
    2.3732  -14.9760   17.2268 N   0  0  0  0  0  0  0  0  0  0  0  0
    2.2513  -16.9405   17.4585 C   0  0  0  0  0  0  0  0  0  0  0  0
    1.2347  -18.4879   17.8738 C   0  0  0  0  0  0  0  0  0  0  0  0
    1.5917  -19.6602   17.1342 C   0  0  0  0  0  0  0  0  0  0  0  0
    1.0155  -20.9672   17.3417 C   0  0  0  0  0  0  0  0  0  0  0  0
    0.0419  -21.2571   18.2923 C   0  0  0  0  0  0  0  0  0  0  0  0
   -0.4326  -22.5300   18.4501 N   0  0  0  0  0  0  0  0  0  0  0  0
   -1.3676  -22.7612   19.3949 C   0  0  0  0  0  0  0  0  0  0  0  0
   -1.8661  -21.7595   20.1996 C   0  0  0  0  0  0  0  0  0  0  0  0
   -1.3692  -20.4541   20.0237 C   0  0  0  0  0  0  0  0  0  0  0  0
   -0.3859  -20.1565   19.0534 C   0  0  0  0  0  0  0  0  0  0  0  0
    0.1955  -18.8100   18.8347 C   0  0  0  0  0  0  0  0  0  0  0  0
    3.5198  -11.8336   17.2577 C   0  0  0  0  0  0  0  0  0  0  0  0
    3.1897  -10.3918   17.3355 C   0  0  0  0  0  0  0  0  0  0  0  0
    3.8287   -9.5306   16.4157 N   0  0  0  0  0  0  0  0  0  0  0  0
    4.0398  -10.2634   15.2788 C   0  0  0  0  0  0  0  0  0  0  0  0
    4.7417   -9.6966   13.9903 C   0  0  0  0  0  0  0  0  0  0  0  0
    4.3756   -8.2996   13.5409 C   0  0  0  0  0  0  0  0  0  0  0  0
    4.0741   -9.4735   12.6657 C   0  0  0  0  0  0  0  0  0  0  0  0
    3.9035  -11.5596   15.6623 N   0  0  0  0  0  0  0  0  0  0  0  0
    1.8691  -14.5724   16.4480 H   0  0  0  0  0  0  0  0  0  0  0  0
    2.6911  -17.3763   16.4799 H   0  0  0  0  0  0  0  0  0  0  0  0
    1.6308  -16.9986   16.5590 H   0  0  0  0  0  0  0  0  0  0  0  0
    2.3572  -19.5852   16.3608 H   0  0  0  0  0  0  0  0  0  0  0  0
    1.3807  -21.7859   16.7226 H   0  0  0  0  0  0  0  0  0  0  0  0
   -1.7065  -23.7881   19.4817 H   0  0  0  0  0  0  0  0  0  0  0  0
   -2.6181  -21.9720   20.9509 H   0  0  0  0  0  0  0  0  0  0  0  0
   -1.7534  -19.6604   20.6607 H   0  0  0  0  0  0  0  0  0  0  0  0
   -0.1670  -18.0530   19.5290 H   0  0  0  0  0  0  0  0  0  0  0  0
    2.6107   -9.8025   18.0370 H   0  0  0  0  0  0  0  0  0  0  0  0
    3.8689   -8.5282   16.4846 H   0  0  0  0  0  0  0  0  0  0  0  0
    5.7928   -9.9625   13.9371 H   0  0  0  0  0  0  0  0  0  0  0  0
    3.5342   -7.7935   13.9971 H   0  0  0  0  0  0  0  0  0  0  0  0
    5.1747   -7.6427   13.2246 H   0  0  0  0  0  0  0  0  0  0  0  0
    4.6782   -9.6087   11.7741 H   0  0  0  0  0  0  0  0  0  0  0  0
    3.0520   -9.7862   12.5241 H   0  0  0  0  0  0  0  0  0  0  0  0
  1  2  2  0
  2  3  1  0
  3  4  1  0
  4  5  1  0
  5  6  2  0
  6  7  1  0
  7  8  2  0
  8  9  1  0
  9 10  2  0
 10 11  1  0
 11 12  2  0
 12 13  1  0
 13 14  2  0
  2 15  1  0
 15 16  2  0
 16 17  1  0
 17 18  1  0
 18 19  1  0
 19 20  1  0
 20 21  1  0
 18 22  2  0
 14  5  1  0
 22 15  1  0
 13  8  1  0
 21 19  1  0
  3 23  1  0
  4 24  1  0
  4 25  1  0
  6 26  1  0
  7 27  1  0
 10 28  1  0
 11 29  1  0
 12 30  1  0
 14 31  1  0
 16 32  1  0
 17 33  1  0
 19 34  1  0
 20 35  1  0
 20 36  1  0
 21 37  1  0
 21 38  1  0
M  END
>  <Energy>  (554) 
484.37727546895337

>  <compound_id>  (554) 
46527

>  <target_id>  (554) 
1

>  <reference_id>  (554) 
80

>  <inspiration_ids>  (554) 
[80, 68]

>  <energy_score>  (554) 
414.13935163537883

>  <distance_score>  (554) 
17.87333836191203

>  <path>  (554) 
/opt/xchem-fragalysis-2/maxwin/BulkDock/SCRATCH/511023/C46527-P80/C46527-P80.minimised.mol

>  <scratch_subdir>  (554) 
/opt/xchem-fragalysis-2/maxwin/BulkDock/SCRATCH/511023/C46527-P80

>  <fragmenstein_runtime>  (554) 
8.450607061386108

>  <fragmenstein_outcome>  (554) 
too moved

>  <fragmenstein_mode>  (554) 
expansion

>  <fragmenstein_error>  (554) 


$$$$
C46527-P68
     RDKit          3D

 38 41  0  0  0  0  0  0  0  0999 V2000
    3.6369  -17.2392   17.1785 O   0  0  0  0  0  0  0  0  0  0  0  0
    2.7439  -17.6291   16.4750 C   0  0  0  0  0  0  0  0  0  0  0  0
    2.1512  -19.0572   16.2949 N   0  0  0  0  0  0  0  0  0  0  0  0
    2.4484  -20.3379   17.0138 C   0  0  0  0  0  0  0  0  0  0  0  0
    1.2898  -21.4304   17.3400 C   0  0  0  0  0  0  0  0  0  0  0  0
    0.0482  -21.5376   16.7057 C   0  0  0  0  0  0  0  0  0  0  0  0
   -0.8763  -22.6021   17.0084 C   0  0  0  0  0  0  0  0  0  0  0  0
   -0.6357  -23.6264   17.9339 C   0  0  0  0  0  0  0  0  0  0  0  0
   -1.5353  -24.6307   18.1548 N   0  0  0  0  0  0  0  0  0  0  0  0
   -1.2251  -25.6027   19.0429 C   0  0  0  0  0  0  0  0  0  0  0  0
   -0.0418  -25.6197   19.7491 C   0  0  0  0  0  0  0  0  0  0  0  0
    0.8702  -24.5783   19.5257 C   0  0  0  0  0  0  0  0  0  0  0  0
    0.5968  -23.5499   18.5990 C   0  0  0  0  0  0  0  0  0  0  0  0
    1.5215  -22.4670   18.3016 C   0  0  0  0  0  0  0  0  0  0  0  0
    1.8711  -16.5457   15.6013 C   0  0  0  0  0  0  0  0  0  0  0  0
    0.9155  -14.7964   15.5271 C   0  0  0  0  0  0  0  0  0  0  0  0
    0.6251  -14.4740   13.5095 N   0  0  0  0  0  0  0  0  0  0  0  0
    0.5964  -16.2311   12.6478 C   0  0  0  0  0  0  0  0  0  0  0  0
    0.6629  -16.5316   11.1080 C   0  0  0  0  0  0  0  0  0  0  0  0
    1.2383  -15.4976   10.1783 C   0  0  0  0  0  0  0  0  0  0  0  0
   -0.2374  -15.7702   10.1719 C   0  0  0  0  0  0  0  0  0  0  0  0
    0.8158  -17.5203   14.1099 N   0  0  0  0  0  0  0  0  0  0  0  0
    1.4492  -19.0419   15.5478 H   0  0  0  0  0  0  0  0  0  0  0  0
    2.8167  -20.0470   17.9767 H   0  0  0  0  0  0  0  0  0  0  0  0
    3.2309  -20.8492   16.4456 H   0  0  0  0  0  0  0  0  0  0  0  0
   -0.2380  -20.8047   15.9516 H   0  0  0  0  0  0  0  0  0  0  0  0
   -1.8234  -22.6196   16.4696 H   0  0  0  0  0  0  0  0  0  0  0  0
   -1.9750  -26.3773   19.1674 H   0  0  0  0  0  0  0  0  0  0  0  0
    0.1762  -26.4123   20.4549 H   0  0  0  0  0  0  0  0  0  0  0  0
    1.8102  -24.5739   20.0730 H   0  0  0  0  0  0  0  0  0  0  0  0
    2.4721  -22.4504   18.8395 H   0  0  0  0  0  0  0  0  0  0  0  0
    1.2070  -13.9686   16.2418 H   0  0  0  0  0  0  0  0  0  0  0  0
    1.2645  -13.8352   13.0790 H   0  0  0  0  0  0  0  0  0  0  0  0
    0.8697  -17.5718   10.8823 H   0  0  0  0  0  0  0  0  0  0  0  0
    1.5688  -14.5480   10.5781 H   0  0  0  0  0  0  0  0  0  0  0  0
    1.8262  -15.8523    9.3396 H   0  0  0  0  0  0  0  0  0  0  0  0
   -0.8915  -15.0052   10.5762 H   0  0  0  0  0  0  0  0  0  0  0  0
   -0.6535  -16.3058    9.3268 H   0  0  0  0  0  0  0  0  0  0  0  0
  1  2  2  0
  2  3  1  0
  3  4  1  0
  4  5  1  0
  5  6  2  0
  6  7  1  0
  7  8  2  0
  8  9  1  0
  9 10  2  0
 10 11  1  0
 11 12  2  0
 12 13  1  0
 13 14  2  0
  2 15  1  0
 15 16  2  0
 16 17  1  0
 17 18  1  0
 18 19  1  0
 19 20  1  0
 20 21  1  0
 18 22  2  0
 14  5  1  0
 22 15  1  0
 13  8  1  0
 21 19  1  0
  3 23  1  0
  4 24  1  0
  4 25  1  0
  6 26  1  0
  7 27  1  0
 10 28  1  0
 11 29  1  0
 12 30  1  0
 14 31  1  0
 16 32  1  0
 17 33  1  0
 19 34  1  0
 20 35  1  0
 20 36  1  0
 21 37  1  0
 21 38  1  0
M  END
>  <Energy>  (555) 
772.51092773772348

>  <compound_id>  (555) 
46527

>  <target_id>  (555) 
1

>  <reference_id>  (555) 
68

>  <inspiration_ids>  (555) 
[80, 68]

>  <energy_score>  (555) 
702.2730039041561

>  <distance_score>  (555) 
17.808021707429834

>  <path>  (555) 
/opt/xchem-fragalysis-2/maxwin/BulkDock/SCRATCH/511023/C46527-P68/C46527-P68.minimised.mol

>  <scratch_subdir>  (555) 
/opt/xchem-fragalysis-2/maxwin/BulkDock/SCRATCH/511023/C46527-P68

>  <fragmenstein_runtime>  (555) 
20.798532724380493

>  <fragmenstein_outcome>  (555) 
too moved

>  <fragmenstein_mode>  (555) 
expansion

>  <fragmenstein_error>  (555) 


$$$$
C46529-P80
     RDKit          3D

 43 45  0  0  0  0  0  0  0  0999 V2000
   12.0694   -7.3646   15.9190 C   0  0  0  0  0  0  0  0  0  0  0  0
   10.2876   -7.3880   15.3523 C   0  0  0  0  0  0  0  0  0  0  0  0
   11.2159   -5.6770   16.0160 C   0  0  0  0  0  0  0  0  0  0  0  0
    8.7330   -7.8464   14.8194 C   0  0  0  0  0  0  0  0  0  0  0  0
   10.0987   -9.3426   15.7354 N   0  0  0  0  0  0  0  0  0  0  0  0
    9.0845  -10.0741   16.4586 C   0  0  0  0  0  0  0  0  0  0  0  0
    9.3402  -11.2898   16.9133 N   0  0  0  0  0  0  0  0  0  0  0  0
   10.5088  -11.7142   16.3903 C   0  0  0  0  0  0  0  0  0  0  0  0
   11.0472  -13.2791   16.6161 C   0  0  0  0  0  0  0  0  0  0  0  0
   12.0583  -13.4988   15.9972 O   0  0  0  0  0  0  0  0  0  0  0  0
   10.2098  -14.2115   17.5295 N   0  0  0  0  0  0  0  0  0  0  0  0
   10.4828  -15.7244   18.0222 C   0  0  0  0  0  0  0  0  0  0  0  0
    9.4761  -17.0470   18.3955 C   0  0  0  0  0  0  0  0  0  0  0  0
    9.3970  -18.1554   17.5156 C   0  0  0  0  0  0  0  0  0  0  0  0
    8.8469  -19.4434   17.8849 C   0  0  0  0  0  0  0  0  0  0  0  0
    8.3303  -19.7521   19.1440 C   0  0  0  0  0  0  0  0  0  0  0  0
    7.8991  -21.0230   19.4458 N   0  0  0  0  0  0  0  0  0  0  0  0
    7.3146  -21.2471   20.6463 C   0  0  0  0  0  0  0  0  0  0  0  0
    7.1581  -20.2459   21.5795 C   0  0  0  0  0  0  0  0  0  0  0  0
    7.6679  -18.9630   21.2781 C   0  0  0  0  0  0  0  0  0  0  0  0
    8.2752  -18.6644   20.0348 C   0  0  0  0  0  0  0  0  0  0  0  0
    8.8617  -17.3444   19.6583 C   0  0  0  0  0  0  0  0  0  0  0  0
   11.0428  -10.5643   15.6884 C   0  0  0  0  0  0  0  0  0  0  0  0
   12.4332   -6.9131   16.8161 H   0  0  0  0  0  0  0  0  0  0  0  0
   12.0529   -8.3926   16.2057 H   0  0  0  0  0  0  0  0  0  0  0  0
   12.9725   -7.1936   15.4104 H   0  0  0  0  0  0  0  0  0  0  0  0
   12.3115   -5.3940   16.0648 H   0  0  0  0  0  0  0  0  0  0  0  0
   10.9851   -5.2361   16.9975 H   0  0  0  0  0  0  0  0  0  0  0  0
   10.9332   -4.8181   15.3173 H   0  0  0  0  0  0  0  0  0  0  0  0
    8.0747   -7.0247   15.0391 H   0  0  0  0  0  0  0  0  0  0  0  0
    8.6347   -8.2136   13.7913 H   0  0  0  0  0  0  0  0  0  0  0  0
    8.0882   -8.6165   15.2267 H   0  0  0  0  0  0  0  0  0  0  0  0
    8.1499   -9.6518   16.7668 H   0  0  0  0  0  0  0  0  0  0  0  0
    9.4681  -13.6801   17.9575 H   0  0  0  0  0  0  0  0  0  0  0  0
   11.0589  -15.5806   18.9452 H   0  0  0  0  0  0  0  0  0  0  0  0
   11.1919  -16.1135   17.2810 H   0  0  0  0  0  0  0  0  0  0  0  0
    9.8452  -18.0703   16.5242 H   0  0  0  0  0  0  0  0  0  0  0  0
    8.8919  -20.2433   17.1456 H   0  0  0  0  0  0  0  0  0  0  0  0
    6.9657  -22.2587   20.8235 H   0  0  0  0  0  0  0  0  0  0  0  0
    6.6769  -20.4425   22.5305 H   0  0  0  0  0  0  0  0  0  0  0  0
    7.5806  -18.1799   22.0266 H   0  0  0  0  0  0  0  0  0  0  0  0
    8.8684  -16.5669   20.4234 H   0  0  0  0  0  0  0  0  0  0  0  0
   11.9981  -10.4612   15.1986 H   0  0  0  0  0  0  0  0  0  0  0  0
  1  2  1  0
  2  3  1  0
  2  4  1  0
  2  5  1  0
  5  6  1  0
  6  7  2  0
  7  8  1  0
  8  9  1  0
  9 10  2  0
  9 11  1  0
 11 12  1  0
 12 13  1  0
 13 14  2  0
 14 15  1  0
 15 16  2  0
 16 17  1  0
 17 18  2  0
 18 19  1  0
 19 20  2  0
 20 21  1  0
 21 22  2  0
  8 23  2  0
 23  5  1  0
 22 13  1  0
 21 16  1  0
  1 24  1  0
  1 25  1  0
  1 26  1  0
  3 27  1  0
  3 28  1  0
  3 29  1  0
  4 30  1  0
  4 31  1  0
  4 32  1  0
  6 33  1  0
 11 34  1  0
 12 35  1  0
 12 36  1  0
 14 37  1  0
 15 38  1  0
 18 39  1  0
 19 40  1  0
 20 41  1  0
 22 42  1  0
 23 43  1  0
M  END
>  <Energy>  (556) 
595.29798383387958

>  <compound_id>  (556) 
46529

>  <target_id>  (556) 
1

>  <reference_id>  (556) 
80

>  <inspiration_ids>  (556) 
[80, 68]

>  <energy_score>  (556) 
506.85415902807824

>  <distance_score>  (556) 
22.13944644586312

>  <path>  (556) 
/opt/xchem-fragalysis-2/maxwin/BulkDock/SCRATCH/511023/C46529-P80/C46529-P80.minimised.mol

>  <scratch_subdir>  (556) 
/opt/xchem-fragalysis-2/maxwin/BulkDock/SCRATCH/511023/C46529-P80

>  <fragmenstein_runtime>  (556) 
8.578782081604004

>  <fragmenstein_outcome>  (556) 
too moved

>  <fragmenstein_mode>  (556) 
expansion

>  <fragmenstein_error>  (556) 


$$$$
C46529-P68
     RDKit          3D

 43 45  0  0  0  0  0  0  0  0999 V2000
   -1.2459  -14.7540   23.7879 C   0  0  0  0  0  0  0  0  0  0  0  0
   -1.7219  -15.8568   24.7578 C   0  0  0  0  0  0  0  0  0  0  0  0
   -0.6628  -15.9812   25.8735 C   0  0  0  0  0  0  0  0  0  0  0  0
   -3.0536  -15.4025   25.3883 C   0  0  0  0  0  0  0  0  0  0  0  0
   -1.9380  -17.1459   24.0733 N   0  0  0  0  0  0  0  0  0  0  0  0
   -2.3343  -17.3326   22.7776 C   0  0  0  0  0  0  0  0  0  0  0  0
   -2.7141  -18.5815   22.5472 N   0  0  0  0  0  0  0  0  0  0  0  0
   -2.6534  -19.2508   23.7751 C   0  0  0  0  0  0  0  0  0  0  0  0
   -3.3462  -20.5864   24.1254 C   0  0  0  0  0  0  0  0  0  0  0  0
   -3.4596  -20.8436   25.2891 O   0  0  0  0  0  0  0  0  0  0  0  0
   -3.8378  -21.2749   22.9593 N   0  0  0  0  0  0  0  0  0  0  0  0
   -4.7204  -22.4565   22.8277 C   0  0  0  0  0  0  0  0  0  0  0  0
   -4.5458  -23.8722   23.4117 C   0  0  0  0  0  0  0  0  0  0  0  0
   -5.5754  -24.4384   24.1941 C   0  0  0  0  0  0  0  0  0  0  0  0
   -5.5689  -25.7954   24.5977 C   0  0  0  0  0  0  0  0  0  0  0  0
   -4.5483  -26.6648   24.2487 C   0  0  0  0  0  0  0  0  0  0  0  0
   -4.5496  -27.9390   24.7037 N   0  0  0  0  0  0  0  0  0  0  0  0
   -3.5351  -28.7467   24.3283 C   0  0  0  0  0  0  0  0  0  0  0  0
   -2.5173  -28.3518   23.4848 C   0  0  0  0  0  0  0  0  0  0  0  0
   -2.5131  -27.0303   23.0382 C   0  0  0  0  0  0  0  0  0  0  0  0
   -3.5288  -26.1420   23.4271 C   0  0  0  0  0  0  0  0  0  0  0  0
   -3.5378  -24.7659   23.0210 C   0  0  0  0  0  0  0  0  0  0  0  0
   -2.0611  -18.3753   24.6863 C   0  0  0  0  0  0  0  0  0  0  0  0
   -0.3300  -15.0501   23.2694 H   0  0  0  0  0  0  0  0  0  0  0  0
   -2.0008  -14.5211   23.0287 H   0  0  0  0  0  0  0  0  0  0  0  0
   -1.0356  -13.8202   24.3225 H   0  0  0  0  0  0  0  0  0  0  0  0
   -0.4616  -15.0082   26.3369 H   0  0  0  0  0  0  0  0  0  0  0  0
    0.2846  -16.3649   25.4841 H   0  0  0  0  0  0  0  0  0  0  0  0
   -0.9872  -16.6526   26.6759 H   0  0  0  0  0  0  0  0  0  0  0  0
   -3.4197  -16.1306   26.1215 H   0  0  0  0  0  0  0  0  0  0  0  0
   -2.9414  -14.4415   25.9030 H   0  0  0  0  0  0  0  0  0  0  0  0
   -3.8343  -15.2848   24.6275 H   0  0  0  0  0  0  0  0  0  0  0  0
   -2.3638  -16.5361   22.0452 H   0  0  0  0  0  0  0  0  0  0  0  0
   -3.6216  -20.7226   22.1335 H   0  0  0  0  0  0  0  0  0  0  0  0
   -4.8484  -22.5911   21.7456 H   0  0  0  0  0  0  0  0  0  0  0  0
   -5.6876  -22.0816   23.1871 H   0  0  0  0  0  0  0  0  0  0  0  0
   -6.4223  -23.8237   24.4990 H   0  0  0  0  0  0  0  0  0  0  0  0
   -6.3862  -26.1686   25.2107 H   0  0  0  0  0  0  0  0  0  0  0  0
   -3.5662  -29.7521   24.7346 H   0  0  0  0  0  0  0  0  0  0  0  0
   -1.7324  -29.0419   23.1965 H   0  0  0  0  0  0  0  0  0  0  0  0
   -1.7060  -26.6923   22.3925 H   0  0  0  0  0  0  0  0  0  0  0  0
   -2.7434  -24.4028   22.3695 H   0  0  0  0  0  0  0  0  0  0  0  0
   -1.8911  -18.5118   25.7455 H   0  0  0  0  0  0  0  0  0  0  0  0
  1  2  1  0
  2  3  1  0
  2  4  1  0
  2  5  1  0
  5  6  1  0
  6  7  2  0
  7  8  1  0
  8  9  1  0
  9 10  2  0
  9 11  1  0
 11 12  1  0
 12 13  1  0
 13 14  2  0
 14 15  1  0
 15 16  2  0
 16 17  1  0
 17 18  2  0
 18 19  1  0
 19 20  2  0
 20 21  1  0
 21 22  2  0
  8 23  2  0
 23  5  1  0
 22 13  1  0
 21 16  1  0
  1 24  1  0
  1 25  1  0
  1 26  1  0
  3 27  1  0
  3 28  1  0
  3 29  1  0
  4 30  1  0
  4 31  1  0
  4 32  1  0
  6 33  1  0
 11 34  1  0
 12 35  1  0
 12 36  1  0
 14 37  1  0
 15 38  1  0
 18 39  1  0
 19 40  1  0
 20 41  1  0
 22 42  1  0
 23 43  1  0
M  END
>  <Energy>  (557) 
76.410339600880718

>  <compound_id>  (557) 
46529

>  <target_id>  (557) 
1

>  <reference_id>  (557) 
68

>  <inspiration_ids>  (557) 
[80, 68]

>  <energy_score>  (557) 
-12.033485204909198

>  <distance_score>  (557) 
16.30802030385506

>  <path>  (557) 
/opt/xchem-fragalysis-2/maxwin/BulkDock/SCRATCH/511023/C46529-P68/C46529-P68.minimised.mol

>  <scratch_subdir>  (557) 
/opt/xchem-fragalysis-2/maxwin/BulkDock/SCRATCH/511023/C46529-P68

>  <fragmenstein_runtime>  (557) 
22.023225784301758

>  <fragmenstein_outcome>  (557) 
too moved

>  <fragmenstein_mode>  (557) 
expansion

>  <fragmenstein_error>  (557) 


$$$$
C46533-P80
     RDKit          3D

 38 40  0  0  0  0  0  0  0  0999 V2000
    5.5796  -24.2053   15.8665 C   0  0  0  0  0  0  0  0  0  0  0  0
    4.1089  -24.6919   15.9470 C   0  0  0  0  0  0  0  0  0  0  0  0
    3.7584  -25.3303   14.5860 C   0  0  0  0  0  0  0  0  0  0  0  0
    4.0732  -25.7883   17.0327 C   0  0  0  0  0  0  0  0  0  0  0  0
    3.1678  -23.5752   16.1976 N   0  0  0  0  0  0  0  0  0  0  0  0
    3.4601  -22.2395   15.9383 C   0  0  0  0  0  0  0  0  0  0  0  0
    2.2530  -21.6018   15.9095 C   0  0  0  0  0  0  0  0  0  0  0  0
    1.2461  -22.5077   16.1653 N   0  0  0  0  0  0  0  0  0  0  0  0
    1.7847  -23.6744   16.4640 C   0  0  0  0  0  0  0  0  0  0  0  0
    1.1053  -24.7843   16.9946 N   0  0  0  0  0  0  0  0  0  0  0  0
   -0.3221  -25.0371   17.1717 C   0  0  0  0  0  0  0  0  0  0  0  0
   -1.2813  -24.3926   16.8352 O   0  0  0  0  0  0  0  0  0  0  0  0
   -0.6751  -26.3695   17.9631 C   0  0  0  0  0  0  0  0  0  0  0  0
    0.1866  -26.9699   18.9923 C   0  0  0  0  0  0  0  0  0  0  0  0
   -0.2387  -28.0288   19.7156 C   0  0  0  0  0  0  0  0  0  0  0  0
   -1.5141  -28.5638   19.5297 N   0  0  0  0  0  0  0  0  0  0  0  0
   -2.0804  -29.5993   20.1974 N   0  0  0  0  0  0  0  0  0  0  0  0
   -3.3173  -29.6925   19.7033 C   0  0  0  0  0  0  0  0  0  0  0  0
   -3.5638  -28.7404   18.6975 C   0  0  0  0  0  0  0  0  0  0  0  0
   -2.3895  -28.0216   18.5919 C   0  0  0  0  0  0  0  0  0  0  0  0
   -1.9270  -26.9005   17.8060 C   0  0  0  0  0  0  0  0  0  0  0  0
    5.7414  -23.5297   15.0188 H   0  0  0  0  0  0  0  0  0  0  0  0
    6.2703  -25.0455   15.7257 H   0  0  0  0  0  0  0  0  0  0  0  0
    5.8777  -23.6818   16.7814 H   0  0  0  0  0  0  0  0  0  0  0  0
    3.8118  -24.5936   13.7757 H   0  0  0  0  0  0  0  0  0  0  0  0
    2.7433  -25.7436   14.5838 H   0  0  0  0  0  0  0  0  0  0  0  0
    4.4478  -26.1467   14.3421 H   0  0  0  0  0  0  0  0  0  0  0  0
    4.9827  -26.4009   17.0132 H   0  0  0  0  0  0  0  0  0  0  0  0
    3.2518  -26.4940   16.8793 H   0  0  0  0  0  0  0  0  0  0  0  0
    3.9831  -25.3679   18.0360 H   0  0  0  0  0  0  0  0  0  0  0  0
    4.4548  -21.8695   15.7520 H   0  0  0  0  0  0  0  0  0  0  0  0
    2.0336  -20.5604   15.7039 H   0  0  0  0  0  0  0  0  0  0  0  0
    1.6212  -25.5741   17.3282 H   0  0  0  0  0  0  0  0  0  0  0  0
    1.1558  -26.5302   19.1975 H   0  0  0  0  0  0  0  0  0  0  0  0
    0.3537  -28.4981   20.4901 H   0  0  0  0  0  0  0  0  0  0  0  0
   -3.9844  -30.4522   20.0925 H   0  0  0  0  0  0  0  0  0  0  0  0
   -4.4728  -28.5949   18.1316 H   0  0  0  0  0  0  0  0  0  0  0  0
   -2.6258  -26.4572   17.1002 H   0  0  0  0  0  0  0  0  0  0  0  0
  1  2  1  0
  2  3  1  0
  2  4  1  0
  2  5  1  0
  5  6  1  0
  6  7  2  0
  7  8  1  0
  8  9  2  0
  9 10  1  0
 10 11  1  0
 11 12  2  0
 11 13  1  0
 13 14  1  0
 14 15  2  0
 15 16  1  0
 16 17  1  0
 17 18  2  0
 18 19  1  0
 19 20  2  0
 20 21  1  0
  9  5  1  0
 21 13  2  0
 20 16  1  0
  1 22  1  0
  1 23  1  0
  1 24  1  0
  3 25  1  0
  3 26  1  0
  3 27  1  0
  4 28  1  0
  4 29  1  0
  4 30  1  0
  6 31  1  0
  7 32  1  0
 10 33  1  0
 14 34  1  0
 15 35  1  0
 18 36  1  0
 19 37  1  0
 21 38  1  0
M  END
>  <Energy>  (558) 
50.198653095001319

>  <compound_id>  (558) 
46533

>  <target_id>  (558) 
1

>  <reference_id>  (558) 
80

>  <inspiration_ids>  (558) 
[80, 68]

>  <energy_score>  (558) 
-39.19724744637318

>  <distance_score>  (558) 
17.162810744925526

>  <path>  (558) 
/opt/xchem-fragalysis-2/maxwin/BulkDock/SCRATCH/511023/C46533-P80/C46533-P80.minimised.mol

>  <scratch_subdir>  (558) 
/opt/xchem-fragalysis-2/maxwin/BulkDock/SCRATCH/511023/C46533-P80

>  <fragmenstein_runtime>  (558) 
13.57959246635437

>  <fragmenstein_outcome>  (558) 
too moved

>  <fragmenstein_mode>  (558) 
expansion

>  <fragmenstein_error>  (558) 


$$$$
C46533-P68
     RDKit          3D

 38 40  0  0  0  0  0  0  0  0999 V2000
    2.3511  -14.1730   28.6822 C   0  0  0  0  0  0  0  0  0  0  0  0
    3.8032  -14.5805   28.9783 C   0  0  0  0  0  0  0  0  0  0  0  0
    3.8542  -15.7170   30.0232 C   0  0  0  0  0  0  0  0  0  0  0  0
    4.4872  -13.3713   29.6828 C   0  0  0  0  0  0  0  0  0  0  0  0
    4.5192  -14.9101   27.7239 N   0  0  0  0  0  0  0  0  0  0  0  0
    5.1175  -13.9426   26.9154 C   0  0  0  0  0  0  0  0  0  0  0  0
    6.1100  -14.5911   26.2345 C   0  0  0  0  0  0  0  0  0  0  0  0
    6.0459  -15.9349   26.5004 N   0  0  0  0  0  0  0  0  0  0  0  0
    4.9777  -16.1441   27.2729 C   0  0  0  0  0  0  0  0  0  0  0  0
    4.4185  -17.4134   27.2091 N   0  0  0  0  0  0  0  0  0  0  0  0
    3.0446  -17.8739   27.4430 C   0  0  0  0  0  0  0  0  0  0  0  0
    2.0761  -17.2822   27.8302 O   0  0  0  0  0  0  0  0  0  0  0  0
    2.8574  -19.3505   26.9957 C   0  0  0  0  0  0  0  0  0  0  0  0
    3.2452  -20.5614   27.7337 C   0  0  0  0  0  0  0  0  0  0  0  0
    3.4011  -21.7521   27.1047 C   0  0  0  0  0  0  0  0  0  0  0  0
    3.1349  -21.9210   25.6958 N   0  0  0  0  0  0  0  0  0  0  0  0
    1.6553  -23.1018   25.3353 N   0  0  0  0  0  0  0  0  0  0  0  0
    0.7067  -22.5497   23.8829 C   0  0  0  0  0  0  0  0  0  0  0  0
    1.6517  -20.8689   23.0887 C   0  0  0  0  0  0  0  0  0  0  0  0
    3.0032  -20.3426   24.4921 C   0  0  0  0  0  0  0  0  0  0  0  0
    2.9807  -19.3231   25.6379 C   0  0  0  0  0  0  0  0  0  0  0  0
    2.3099  -13.3225   27.9918 H   0  0  0  0  0  0  0  0  0  0  0  0
    1.8293  -13.8790   29.6003 H   0  0  0  0  0  0  0  0  0  0  0  0
    1.7748  -14.9790   28.2277 H   0  0  0  0  0  0  0  0  0  0  0  0
    3.2897  -16.5993   29.7297 H   0  0  0  0  0  0  0  0  0  0  0  0
    4.8864  -16.0330   30.2154 H   0  0  0  0  0  0  0  0  0  0  0  0
    3.4274  -15.3913   30.9797 H   0  0  0  0  0  0  0  0  0  0  0  0
    4.3962  -12.4463   29.1031 H   0  0  0  0  0  0  0  0  0  0  0  0
    5.5546  -13.5606   29.8484 H   0  0  0  0  0  0  0  0  0  0  0  0
    4.0297  -13.1701   30.6590 H   0  0  0  0  0  0  0  0  0  0  0  0
    4.8508  -12.8970   26.9742 H   0  0  0  0  0  0  0  0  0  0  0  0
    6.8575  -14.1719   25.5744 H   0  0  0  0  0  0  0  0  0  0  0  0
    4.9928  -18.1992   26.9642 H   0  0  0  0  0  0  0  0  0  0  0  0
    3.3601  -20.4772   28.8109 H   0  0  0  0  0  0  0  0  0  0  0  0
    3.5430  -22.6812   27.6441 H   0  0  0  0  0  0  0  0  0  0  0  0
   -0.1770  -23.0657   23.5313 H   0  0  0  0  0  0  0  0  0  0  0  0
    1.1330  -20.3698   22.2675 H   0  0  0  0  0  0  0  0  0  0  0  0
    4.0011  -19.7287   25.7880 H   0  0  0  0  0  0  0  0  0  0  0  0
  1  2  1  0
  2  3  1  0
  2  4  1  0
  2  5  1  0
  5  6  1  0
  6  7  2  0
  7  8  1  0
  8  9  2  0
  9 10  1  0
 10 11  1  0
 11 12  2  0
 11 13  1  0
 13 14  1  0
 14 15  2  0
 15 16  1  0
 16 17  1  0
 17 18  2  0
 18 19  1  0
 19 20  2  0
 20 21  1  0
  9  5  1  0
 21 13  2  0
 20 16  1  0
  1 22  1  0
  1 23  1  0
  1 24  1  0
  3 25  1  0
  3 26  1  0
  3 27  1  0
  4 28  1  0
  4 29  1  0
  4 30  1  0
  6 31  1  0
  7 32  1  0
 10 33  1  0
 14 34  1  0
 15 35  1  0
 18 36  1  0
 19 37  1  0
 21 38  1  0
M  END
>  <Energy>  (559) 
703.23789631481736

>  <compound_id>  (559) 
46533

>  <target_id>  (559) 
1

>  <reference_id>  (559) 
68

>  <inspiration_ids>  (559) 
[80, 68]

>  <energy_score>  (559) 
613.841995773435

>  <distance_score>  (559) 
18.95160491786935

>  <path>  (559) 
/opt/xchem-fragalysis-2/maxwin/BulkDock/SCRATCH/511023/C46533-P68/C46533-P68.minimised.mol

>  <scratch_subdir>  (559) 
/opt/xchem-fragalysis-2/maxwin/BulkDock/SCRATCH/511023/C46533-P68

>  <fragmenstein_runtime>  (559) 
25.84095573425293

>  <fragmenstein_outcome>  (559) 
too moved

>  <fragmenstein_mode>  (559) 
expansion

>  <fragmenstein_error>  (559) 


$$$$
C46534-P80
     RDKit          3D

 33 36  0  0  0  0  0  0  0  0999 V2000
    3.4297  -25.0501   16.3172 O   0  0  0  0  0  0  0  0  0  0  0  0
    2.4710  -24.3826   16.6083 C   0  0  0  0  0  0  0  0  0  0  0  0
    2.2094  -22.9636   16.4199 N   0  0  0  0  0  0  0  0  0  0  0  0
    3.0294  -21.9333   15.9290 C   0  0  0  0  0  0  0  0  0  0  0  0
    4.3189  -21.9482   15.6018 N   0  0  0  0  0  0  0  0  0  0  0  0
    4.6555  -20.6800   15.1691 C   0  0  0  0  0  0  0  0  0  0  0  0
    6.0863  -20.2553   14.7188 C   0  0  0  0  0  0  0  0  0  0  0  0
    6.3100  -19.0381   13.8602 C   0  0  0  0  0  0  0  0  0  0  0  0
    6.4386  -20.4088   13.2618 C   0  0  0  0  0  0  0  0  0  0  0  0
    3.5678  -19.8574   15.2228 C   0  0  0  0  0  0  0  0  0  0  0  0
    2.5569  -20.6352   15.7345 N   0  0  0  0  0  0  0  0  0  0  0  0
    1.3207  -25.1999   17.3925 C   0  0  0  0  0  0  0  0  0  0  0  0
    1.8076  -26.2471   18.3331 C   0  0  0  0  0  0  0  0  0  0  0  0
    0.9729  -27.0979   18.9594 C   0  0  0  0  0  0  0  0  0  0  0  0
   -0.3964  -27.0149   18.7500 N   0  0  0  0  0  0  0  0  0  0  0  0
   -1.3636  -27.7777   19.3205 N   0  0  0  0  0  0  0  0  0  0  0  0
   -2.5063  -27.3340   18.7990 C   0  0  0  0  0  0  0  0  0  0  0  0
   -2.3036  -26.2673   17.9032 C   0  0  0  0  0  0  0  0  0  0  0  0
   -0.9367  -26.0589   17.8818 C   0  0  0  0  0  0  0  0  0  0  0  0
   -0.0269  -25.1527   17.1877 C   0  0  0  0  0  0  0  0  0  0  0  0
    1.3382  -22.7302   16.8586 H   0  0  0  0  0  0  0  0  0  0  0  0
    6.8601  -20.5295   15.4279 H   0  0  0  0  0  0  0  0  0  0  0  0
    7.2189  -18.4690   14.0134 H   0  0  0  0  0  0  0  0  0  0  0  0
    5.4595  -18.4417   13.5500 H   0  0  0  0  0  0  0  0  0  0  0  0
    5.6630  -20.7470   12.5829 H   0  0  0  0  0  0  0  0  0  0  0  0
    7.4282  -20.7779   13.0214 H   0  0  0  0  0  0  0  0  0  0  0  0
    3.4130  -18.8248   14.9662 H   0  0  0  0  0  0  0  0  0  0  0  0
    1.5999  -20.3285   15.8472 H   0  0  0  0  0  0  0  0  0  0  0  0
    2.8826  -26.3070   18.4846 H   0  0  0  0  0  0  0  0  0  0  0  0
    1.3071  -27.8688   19.6401 H   0  0  0  0  0  0  0  0  0  0  0  0
   -3.4368  -27.8037   19.0921 H   0  0  0  0  0  0  0  0  0  0  0  0
   -3.0521  -25.7261   17.3426 H   0  0  0  0  0  0  0  0  0  0  0  0
   -0.4463  -24.4716   16.4554 H   0  0  0  0  0  0  0  0  0  0  0  0
  1  2  2  0
  2  3  1  0
  3  4  1  0
  4  5  2  0
  5  6  1  0
  6  7  1  0
  7  8  1  0
  8  9  1  0
  6 10  2  0
 10 11  1  0
  2 12  1  0
 12 13  1  0
 13 14  2  0
 14 15  1  0
 15 16  1  0
 16 17  2  0
 17 18  1  0
 18 19  2  0
 19 20  1  0
 11  4  1  0
 20 12  2  0
  9  7  1  0
 19 15  1  0
  3 21  1  0
  7 22  1  0
  8 23  1  0
  8 24  1  0
  9 25  1  0
  9 26  1  0
 10 27  1  0
 11 28  1  0
 13 29  1  0
 14 30  1  0
 17 31  1  0
 18 32  1  0
 20 33  1  0
M  END
>  <Energy>  (560) 
34.915128914001635

>  <compound_id>  (560) 
46534

>  <target_id>  (560) 
1

>  <reference_id>  (560) 
80

>  <inspiration_ids>  (560) 
[80, 68]

>  <energy_score>  (560) 
4.032343904975789

>  <distance_score>  (560) 
17.068202172027505

>  <path>  (560) 
/opt/xchem-fragalysis-2/maxwin/BulkDock/SCRATCH/511023/C46534-P80/C46534-P80.minimised.mol

>  <scratch_subdir>  (560) 
/opt/xchem-fragalysis-2/maxwin/BulkDock/SCRATCH/511023/C46534-P80

>  <fragmenstein_runtime>  (560) 
20.344717264175415

>  <fragmenstein_outcome>  (560) 
too moved

>  <fragmenstein_mode>  (560) 
expansion

>  <fragmenstein_error>  (560) 


$$$$
C46534-P68
     RDKit          3D

 33 36  0  0  0  0  0  0  0  0999 V2000
    2.2041  -20.7831   27.4431 O   0  0  0  0  0  0  0  0  0  0  0  0
    2.0165  -20.6582   26.2596 C   0  0  0  0  0  0  0  0  0  0  0  0
    2.5916  -19.7132   25.2974 N   0  0  0  0  0  0  0  0  0  0  0  0
    3.4560  -18.6201   25.4838 C   0  0  0  0  0  0  0  0  0  0  0  0
    3.8536  -17.6867   24.6084 N   0  0  0  0  0  0  0  0  0  0  0  0
    4.5574  -16.7251   25.3213 C   0  0  0  0  0  0  0  0  0  0  0  0
    5.0839  -15.3456   24.8029 C   0  0  0  0  0  0  0  0  0  0  0  0
    4.1581  -14.4243   24.0531 C   0  0  0  0  0  0  0  0  0  0  0  0
    4.5550  -14.0903   25.4576 C   0  0  0  0  0  0  0  0  0  0  0  0
    4.7032  -17.1288   26.6186 C   0  0  0  0  0  0  0  0  0  0  0  0
    4.0098  -18.3121   26.7066 N   0  0  0  0  0  0  0  0  0  0  0  0
    0.9466  -21.7361   25.6815 C   0  0  0  0  0  0  0  0  0  0  0  0
    0.0267  -21.5019   24.5529 C   0  0  0  0  0  0  0  0  0  0  0  0
   -0.8690  -22.4416   24.1718 C   0  0  0  0  0  0  0  0  0  0  0  0
   -0.9800  -23.6555   24.8485 N   0  0  0  0  0  0  0  0  0  0  0  0
   -1.8389  -24.6732   24.5868 N   0  0  0  0  0  0  0  0  0  0  0  0
   -1.5804  -25.5905   25.5205 C   0  0  0  0  0  0  0  0  0  0  0  0
   -0.5482  -25.1891   26.3897 C   0  0  0  0  0  0  0  0  0  0  0  0
   -0.1674  -23.9373   25.9427 C   0  0  0  0  0  0  0  0  0  0  0  0
    0.8008  -22.9320   26.3423 C   0  0  0  0  0  0  0  0  0  0  0  0
    2.1396  -19.8425   24.3903 H   0  0  0  0  0  0  0  0  0  0  0  0
    6.1348  -15.3430   24.5366 H   0  0  0  0  0  0  0  0  0  0  0  0
    3.1470  -14.7601   23.8658 H   0  0  0  0  0  0  0  0  0  0  0  0
    4.5756  -13.8357   23.2439 H   0  0  0  0  0  0  0  0  0  0  0  0
    5.2469  -13.2703   25.6090 H   0  0  0  0  0  0  0  0  0  0  0  0
    3.7985  -14.1810   26.2285 H   0  0  0  0  0  0  0  0  0  0  0  0
    5.1767  -16.6824   27.4808 H   0  0  0  0  0  0  0  0  0  0  0  0
    3.8595  -18.8632   27.5411 H   0  0  0  0  0  0  0  0  0  0  0  0
    0.0909  -20.5700   24.0090 H   0  0  0  0  0  0  0  0  0  0  0  0
   -1.5464  -22.3085   23.3380 H   0  0  0  0  0  0  0  0  0  0  0  0
   -2.1503  -26.5110   25.5276 H   0  0  0  0  0  0  0  0  0  0  0  0
   -0.1390  -25.7325   27.2292 H   0  0  0  0  0  0  0  0  0  0  0  0
    1.4203  -23.1513   27.2090 H   0  0  0  0  0  0  0  0  0  0  0  0
  1  2  2  0
  2  3  1  0
  3  4  1  0
  4  5  2  0
  5  6  1  0
  6  7  1  0
  7  8  1  0
  8  9  1  0
  6 10  2  0
 10 11  1  0
  2 12  1  0
 12 13  1  0
 13 14  2  0
 14 15  1  0
 15 16  1  0
 16 17  2  0
 17 18  1  0
 18 19  2  0
 19 20  1  0
 11  4  1  0
 20 12  2  0
  9  7  1  0
 19 15  1  0
  3 21  1  0
  7 22  1  0
  8 23  1  0
  8 24  1  0
  9 25  1  0
  9 26  1  0
 10 27  1  0
 11 28  1  0
 13 29  1  0
 14 30  1  0
 17 31  1  0
 18 32  1  0
 20 33  1  0
M  END
>  <Energy>  (561) 
21.80022912702583

>  <compound_id>  (561) 
46534

>  <target_id>  (561) 
1

>  <reference_id>  (561) 
68

>  <inspiration_ids>  (561) 
[80, 68]

>  <energy_score>  (561) 
-9.082555882000634

>  <distance_score>  (561) 
17.541744027845972

>  <path>  (561) 
/opt/xchem-fragalysis-2/maxwin/BulkDock/SCRATCH/511023/C46534-P68/C46534-P68.minimised.mol

>  <scratch_subdir>  (561) 
/opt/xchem-fragalysis-2/maxwin/BulkDock/SCRATCH/511023/C46534-P68

>  <fragmenstein_runtime>  (561) 
24.425454139709473

>  <fragmenstein_outcome>  (561) 
too moved

>  <fragmenstein_mode>  (561) 
expansion

>  <fragmenstein_error>  (561) 


$$$$
C46535-P80
     RDKit          3D

 36 39  0  0  0  0  0  0  0  0999 V2000
    4.4235  -18.8026   14.2702 O   0  0  0  0  0  0  0  0  0  0  0  0
    3.7084  -18.5503   15.2119 C   0  0  0  0  0  0  0  0  0  0  0  0
    2.8264  -19.4731   16.0678 N   0  0  0  0  0  0  0  0  0  0  0  0
    2.6689  -20.9325   16.0562 C   0  0  0  0  0  0  0  0  0  0  0  0
    2.1644  -21.6454   14.9710 C   0  0  0  0  0  0  0  0  0  0  0  0
    1.6182  -22.9768   15.1147 C   0  0  0  0  0  0  0  0  0  0  0  0
    1.5631  -23.6930   16.3187 C   0  0  0  0  0  0  0  0  0  0  0  0
    0.9445  -24.9082   16.4163 N   0  0  0  0  0  0  0  0  0  0  0  0
    0.9177  -25.5365   17.6149 C   0  0  0  0  0  0  0  0  0  0  0  0
    1.4908  -25.0028   18.7486 C   0  0  0  0  0  0  0  0  0  0  0  0
    2.1176  -23.7523   18.6406 C   0  0  0  0  0  0  0  0  0  0  0  0
    2.1534  -23.0495   17.4149 C   0  0  0  0  0  0  0  0  0  0  0  0
    2.6671  -21.6847   17.2685 C   0  0  0  0  0  0  0  0  0  0  0  0
    3.6860  -16.8694   15.6361 C   0  0  0  0  0  0  0  0  0  0  0  0
    2.6466  -16.1107   16.5344 C   0  0  0  0  0  0  0  0  0  0  0  0
    2.7827  -14.7692   17.7041 C   0  0  0  0  0  0  0  0  0  0  0  0
    3.8968  -13.7030   17.9097 C   0  0  0  0  0  0  0  0  0  0  0  0
    4.4460  -11.9996   16.9044 N   0  0  0  0  0  0  0  0  0  0  0  0
    5.7887  -11.6310   18.3665 C   0  0  0  0  0  0  0  0  0  0  0  0
    7.1550  -10.5412   17.7916 C   0  0  0  0  0  0  0  0  0  0  0  0
    7.1581  -10.5573   15.8446 N   0  0  0  0  0  0  0  0  0  0  0  0
    5.2647  -11.0713   15.1959 C   0  0  0  0  0  0  0  0  0  0  0  0
    4.6060  -14.9389   17.4637 N   0  0  0  0  0  0  0  0  0  0  0  0
    4.7396  -16.1420   16.1471 N   0  0  0  0  0  0  0  0  0  0  0  0
    2.4267  -18.9429   16.8268 H   0  0  0  0  0  0  0  0  0  0  0  0
    2.0764  -21.1480   14.0057 H   0  0  0  0  0  0  0  0  0  0  0  0
    1.1869  -23.4403   14.2277 H   0  0  0  0  0  0  0  0  0  0  0  0
    0.4178  -26.4998   17.6277 H   0  0  0  0  0  0  0  0  0  0  0  0
    1.4583  -25.5310   19.6946 H   0  0  0  0  0  0  0  0  0  0  0  0
    2.5579  -23.3028   19.5293 H   0  0  0  0  0  0  0  0  0  0  0  0
    3.0070  -21.1846   18.1770 H   0  0  0  0  0  0  0  0  0  0  0  0
    1.9624  -16.9571   16.7256 H   0  0  0  0  0  0  0  0  0  0  0  0
    1.8183  -14.4109   18.0341 H   0  0  0  0  0  0  0  0  0  0  0  0
    5.5059  -12.1416   19.2919 H   0  0  0  0  0  0  0  0  0  0  0  0
    8.0659  -10.1813   18.2664 H   0  0  0  0  0  0  0  0  0  0  0  0
    5.0944  -11.7005   14.3134 H   0  0  0  0  0  0  0  0  0  0  0  0
  1  2  2  0
  2  3  1  0
  3  4  1  0
  4  5  2  0
  5  6  1  0
  6  7  2  0
  7  8  1  0
  8  9  2  0
  9 10  1  0
 10 11  2  0
 11 12  1  0
 12 13  2  0
  2 14  1  0
 14 15  2  0
 15 16  1  0
 16 17  2  0
 17 18  1  0
 18 19  1  0
 19 20  2  0
 20 21  1  0
 21 22  2  0
 17 23  1  0
 23 24  2  0
 13  4  1  0
 24 14  1  0
 12  7  1  0
 22 18  1  0
  3 25  1  0
  5 26  1  0
  6 27  1  0
  9 28  1  0
 10 29  1  0
 11 30  1  0
 13 31  1  0
 15 32  1  0
 16 33  1  0
 19 34  1  0
 20 35  1  0
 22 36  1  0
M  END
>  <Energy>  (562) 
1302.6966104434682

>  <compound_id>  (562) 
46535

>  <target_id>  (562) 
1

>  <reference_id>  (562) 
80

>  <inspiration_ids>  (562) 
[80, 68]

>  <energy_score>  (562) 
1173.2165449908043

>  <distance_score>  (562) 
16.747182721933395

>  <path>  (562) 
/opt/xchem-fragalysis-2/maxwin/BulkDock/SCRATCH/511023/C46535-P80/C46535-P80.minimised.mol

>  <scratch_subdir>  (562) 
/opt/xchem-fragalysis-2/maxwin/BulkDock/SCRATCH/511023/C46535-P80

>  <fragmenstein_runtime>  (562) 
10.238625288009644

>  <fragmenstein_outcome>  (562) 
too moved

>  <fragmenstein_mode>  (562) 
expansion

>  <fragmenstein_error>  (562) 


$$$$
C46535-P68
     RDKit          3D

 36 39  0  0  0  0  0  0  0  0999 V2000
   -3.7490  -13.6765   16.1239 O   0  0  0  0  0  0  0  0  0  0  0  0
   -3.2048  -14.5093   16.8230 C   0  0  0  0  0  0  0  0  0  0  0  0
   -3.7003  -16.0821   17.2045 N   0  0  0  0  0  0  0  0  0  0  0  0
   -4.9245  -16.8105   16.8587 C   0  0  0  0  0  0  0  0  0  0  0  0
   -4.9287  -17.5940   15.7003 C   0  0  0  0  0  0  0  0  0  0  0  0
   -5.3740  -18.9794   15.6748 C   0  0  0  0  0  0  0  0  0  0  0  0
   -5.8059  -19.7129   16.7922 C   0  0  0  0  0  0  0  0  0  0  0  0
   -6.0741  -21.0549   16.7382 N   0  0  0  0  0  0  0  0  0  0  0  0
   -6.4273  -21.7032   17.8736 C   0  0  0  0  0  0  0  0  0  0  0  0
   -6.5416  -21.0646   19.0884 C   0  0  0  0  0  0  0  0  0  0  0  0
   -6.2711  -19.6880   19.1305 C   0  0  0  0  0  0  0  0  0  0  0  0
   -5.8778  -18.9750   17.9738 C   0  0  0  0  0  0  0  0  0  0  0  0
   -5.4700  -17.5693   17.9704 C   0  0  0  0  0  0  0  0  0  0  0  0
   -1.4867  -14.1385   17.5364 C   0  0  0  0  0  0  0  0  0  0  0  0
   -0.2978  -14.8531   17.8731 C   0  0  0  0  0  0  0  0  0  0  0  0
    1.5840  -14.7283   17.8507 C   0  0  0  0  0  0  0  0  0  0  0  0
    2.5178  -13.7563   17.7350 C   0  0  0  0  0  0  0  0  0  0  0  0
    3.2101  -11.9887   17.6771 N   0  0  0  0  0  0  0  0  0  0  0  0
    2.6902  -10.3600   18.0652 C   0  0  0  0  0  0  0  0  0  0  0  0
    3.1315   -9.3277   17.4987 C   0  0  0  0  0  0  0  0  0  0  0  0
    3.6942  -10.0716   16.6095 N   0  0  0  0  0  0  0  0  0  0  0  0
    3.5389  -11.3294   16.4976 C   0  0  0  0  0  0  0  0  0  0  0  0
    1.2439  -13.5177   17.5111 N   0  0  0  0  0  0  0  0  0  0  0  0
   -0.5477  -13.3674   17.2690 N   0  0  0  0  0  0  0  0  0  0  0  0
   -3.0661  -16.4863   17.8785 H   0  0  0  0  0  0  0  0  0  0  0  0
   -4.4582  -17.1967   14.7999 H   0  0  0  0  0  0  0  0  0  0  0  0
   -5.2903  -19.5123   14.7272 H   0  0  0  0  0  0  0  0  0  0  0  0
   -6.6257  -22.7647   17.7650 H   0  0  0  0  0  0  0  0  0  0  0  0
   -6.8332  -21.6064   19.9805 H   0  0  0  0  0  0  0  0  0  0  0  0
   -6.3433  -19.1687   20.0836 H   0  0  0  0  0  0  0  0  0  0  0  0
   -5.4424  -17.0905   18.9518 H   0  0  0  0  0  0  0  0  0  0  0  0
   -0.3504  -15.7364   18.5100 H   0  0  0  0  0  0  0  0  0  0  0  0
    2.0055  -15.7239   18.1186 H   0  0  0  0  0  0  0  0  0  0  0  0
    2.2625  -10.0427   18.9689 H   0  0  0  0  0  0  0  0  0  0  0  0
    2.8937   -8.2787   17.6247 H   0  0  0  0  0  0  0  0  0  0  0  0
    3.9577  -11.6565   15.5643 H   0  0  0  0  0  0  0  0  0  0  0  0
  1  2  2  0
  2  3  1  0
  3  4  1  0
  4  5  2  0
  5  6  1  0
  6  7  2  0
  7  8  1  0
  8  9  2  0
  9 10  1  0
 10 11  2  0
 11 12  1  0
 12 13  2  0
  2 14  1  0
 14 15  2  0
 15 16  1  0
 16 17  2  0
 17 18  1  0
 18 19  1  0
 19 20  2  0
 20 21  1  0
 21 22  2  0
 17 23  1  0
 23 24  2  0
 13  4  1  0
 24 14  1  0
 12  7  1  0
 22 18  1  0
  3 25  1  0
  5 26  1  0
  6 27  1  0
  9 28  1  0
 10 29  1  0
 11 30  1  0
 13 31  1  0
 15 32  1  0
 16 33  1  0
 19 34  1  0
 20 35  1  0
 22 36  1  0
M  END
>  <Energy>  (563) 
725.70288194357852

>  <compound_id>  (563) 
46535

>  <target_id>  (563) 
1

>  <reference_id>  (563) 
68

>  <inspiration_ids>  (563) 
[80, 68]

>  <energy_score>  (563) 
596.2228164908712

>  <distance_score>  (563) 
16.951895636132484

>  <path>  (563) 
/opt/xchem-fragalysis-2/maxwin/BulkDock/SCRATCH/511023/C46535-P68/C46535-P68.minimised.mol

>  <scratch_subdir>  (563) 
/opt/xchem-fragalysis-2/maxwin/BulkDock/SCRATCH/511023/C46535-P68

>  <fragmenstein_runtime>  (563) 
21.691819429397583

>  <fragmenstein_outcome>  (563) 
too moved

>  <fragmenstein_mode>  (563) 
expansion

>  <fragmenstein_error>  (563) 


$$$$
C46536-P80
     RDKit          3D

 35 38  0  0  0  0  0  0  0  0999 V2000
   -1.7502  -14.6195   19.0823 O   0  0  0  0  0  0  0  0  0  0  0  0
   -1.8154  -14.0711   18.0383 C   0  0  0  0  0  0  0  0  0  0  0  0
   -2.8363  -14.8113   16.7749 N   0  0  0  0  0  0  0  0  0  0  0  0
   -3.9340  -16.2387   16.8073 C   0  0  0  0  0  0  0  0  0  0  0  0
   -4.4372  -16.9788   15.6627 C   0  0  0  0  0  0  0  0  0  0  0  0
   -5.0430  -18.3277   15.6394 C   0  0  0  0  0  0  0  0  0  0  0  0
   -5.0874  -19.0831   16.8419 C   0  0  0  0  0  0  0  0  0  0  0  0
   -5.4986  -20.3504   17.0341 N   0  0  0  0  0  0  0  0  0  0  0  0
   -5.2173  -20.8105   18.6058 S   0  0  0  0  0  0  0  0  0  0  0  0
   -4.5672  -19.3022   19.1135 C   0  0  0  0  0  0  0  0  0  0  0  0
   -4.5764  -18.4363   18.0380 C   0  0  0  0  0  0  0  0  0  0  0  0
   -4.0390  -17.0914   18.0542 C   0  0  0  0  0  0  0  0  0  0  0  0
   -0.5994  -12.5327   18.0320 C   0  0  0  0  0  0  0  0  0  0  0  0
    1.2217  -13.3006   18.2216 C   0  0  0  0  0  0  0  0  0  0  0  0
    2.8146  -11.9720   18.1281 C   0  0  0  0  0  0  0  0  0  0  0  0
    2.3259  -10.0654   17.8913 C   0  0  0  0  0  0  0  0  0  0  0  0
    0.6326   -9.1390   17.7860 C   0  0  0  0  0  0  0  0  0  0  0  0
    0.8246   -7.8126   16.2949 N   0  0  0  0  0  0  0  0  0  0  0  0
    1.7316   -6.2015   15.6653 C   0  0  0  0  0  0  0  0  0  0  0  0
    0.9973   -5.3405   14.7420 C   0  0  0  0  0  0  0  0  0  0  0  0
   -0.1992   -5.9854   14.4215 N   0  0  0  0  0  0  0  0  0  0  0  0
   -0.2021   -7.2961   14.8959 C   0  0  0  0  0  0  0  0  0  0  0  0
   -0.8986  -10.5619   18.0799 C   0  0  0  0  0  0  0  0  0  0  0  0
   -2.7230  -14.2916   15.9453 H   0  0  0  0  0  0  0  0  0  0  0  0
   -4.2405  -16.5949   14.6653 H   0  0  0  0  0  0  0  0  0  0  0  0
   -5.3520  -18.7694   14.6980 H   0  0  0  0  0  0  0  0  0  0  0  0
   -4.2208  -19.1448   20.1241 H   0  0  0  0  0  0  0  0  0  0  0  0
   -3.5050  -16.7990   18.9568 H   0  0  0  0  0  0  0  0  0  0  0  0
    1.5303  -14.2979   17.9324 H   0  0  0  0  0  0  0  0  0  0  0  0
    3.7988  -12.3835   18.0517 H   0  0  0  0  0  0  0  0  0  0  0  0
    3.1561   -9.4172   17.6511 H   0  0  0  0  0  0  0  0  0  0  0  0
    2.8513   -6.2583   15.4763 H   0  0  0  0  0  0  0  0  0  0  0  0
    1.3285   -4.4360   14.2482 H   0  0  0  0  0  0  0  0  0  0  0  0
   -0.9064   -7.9268   14.3554 H   0  0  0  0  0  0  0  0  0  0  0  0
   -1.9302  -10.1918   18.0298 H   0  0  0  0  0  0  0  0  0  0  0  0
  1  2  2  0
  2  3  1  0
  3  4  1  0
  4  5  1  0
  5  6  2  0
  6  7  1  0
  7  8  2  0
  8  9  1  0
  9 10  1  0
 10 11  2  0
 11 12  1  0
  2 13  1  0
 13 14  2  0
 14 15  1  0
 15 16  2  0
 16 17  1  0
 17 18  1  0
 18 19  1  0
 19 20  2  0
 20 21  1  0
 21 22  2  0
 17 23  2  0
 12  4  2  0
 23 13  1  0
 11  7  1  0
 22 18  1  0
  3 24  1  0
  5 25  1  0
  6 26  1  0
 10 27  1  0
 12 28  1  0
 14 29  1  0
 15 30  1  0
 16 31  1  0
 19 32  1  0
 20 33  1  0
 22 34  1  0
 23 35  1  0
M  END
>  <Energy>  (564) 
1293.8941966927173

>  <compound_id>  (564) 
46536

>  <target_id>  (564) 
1

>  <reference_id>  (564) 
80

>  <inspiration_ids>  (564) 
[80, 68]

>  <energy_score>  (564) 
1163.5073329947732

>  <distance_score>  (564) 
17.801087440040256

>  <path>  (564) 
/opt/xchem-fragalysis-2/maxwin/BulkDock/SCRATCH/511023/C46536-P80/C46536-P80.minimised.mol

>  <scratch_subdir>  (564) 
/opt/xchem-fragalysis-2/maxwin/BulkDock/SCRATCH/511023/C46536-P80

>  <fragmenstein_runtime>  (564) 
11.843803644180298

>  <fragmenstein_outcome>  (564) 
too moved

>  <fragmenstein_mode>  (564) 
expansion

>  <fragmenstein_error>  (564) 


$$$$
C46536-P68
     RDKit          3D

 35 38  0  0  0  0  0  0  0  0999 V2000
   -2.2206  -16.1519   20.5984 O   0  0  0  0  0  0  0  0  0  0  0  0
   -2.6719  -15.8892   19.5021 C   0  0  0  0  0  0  0  0  0  0  0  0
   -3.9631  -16.8157   18.4941 N   0  0  0  0  0  0  0  0  0  0  0  0
   -4.9052  -18.1597   18.8833 C   0  0  0  0  0  0  0  0  0  0  0  0
   -5.2215  -19.0052   17.7492 C   0  0  0  0  0  0  0  0  0  0  0  0
   -5.7179  -20.3617   17.8019 C   0  0  0  0  0  0  0  0  0  0  0  0
   -5.9289  -20.9116   19.0874 C   0  0  0  0  0  0  0  0  0  0  0  0
   -6.2798  -22.1717   19.3958 N   0  0  0  0  0  0  0  0  0  0  0  0
   -6.3675  -22.3531   21.0388 S   0  0  0  0  0  0  0  0  0  0  0  0
   -5.9715  -20.7234   21.4215 C   0  0  0  0  0  0  0  0  0  0  0  0
   -5.7409  -20.0321   20.2499 C   0  0  0  0  0  0  0  0  0  0  0  0
   -5.3079  -18.6557   20.1858 C   0  0  0  0  0  0  0  0  0  0  0  0
   -2.0082  -14.1407   18.8385 C   0  0  0  0  0  0  0  0  0  0  0  0
   -2.1912  -13.3798   17.7400 C   0  0  0  0  0  0  0  0  0  0  0  0
   -2.2092  -11.8515   17.9900 C   0  0  0  0  0  0  0  0  0  0  0  0
   -1.5170  -10.8290   18.8746 C   0  0  0  0  0  0  0  0  0  0  0  0
   -0.7128  -11.1446   20.1193 C   0  0  0  0  0  0  0  0  0  0  0  0
    0.8681   -9.9180   20.6832 N   0  0  0  0  0  0  0  0  0  0  0  0
    0.5102   -8.2121   20.5646 C   0  0  0  0  0  0  0  0  0  0  0  0
   -0.1720   -8.2112   19.3430 C   0  0  0  0  0  0  0  0  0  0  0  0
    0.7467   -8.4041   18.3978 N   0  0  0  0  0  0  0  0  0  0  0  0
    1.6256   -9.0302   19.1577 C   0  0  0  0  0  0  0  0  0  0  0  0
   -1.6331  -12.7641   20.1133 C   0  0  0  0  0  0  0  0  0  0  0  0
   -4.0745  -16.3959   17.5704 H   0  0  0  0  0  0  0  0  0  0  0  0
   -4.9584  -18.6284   16.7586 H   0  0  0  0  0  0  0  0  0  0  0  0
   -5.8543  -20.9504   16.9027 H   0  0  0  0  0  0  0  0  0  0  0  0
   -5.9137  -20.3868   22.4457 H   0  0  0  0  0  0  0  0  0  0  0  0
   -5.1563  -18.0698   21.0860 H   0  0  0  0  0  0  0  0  0  0  0  0
   -2.6724  -13.8293   16.8961 H   0  0  0  0  0  0  0  0  0  0  0  0
   -2.9817  -11.2907   17.4621 H   0  0  0  0  0  0  0  0  0  0  0  0
   -1.7146   -9.8072   18.5831 H   0  0  0  0  0  0  0  0  0  0  0  0
    0.3535   -7.8364   21.5600 H   0  0  0  0  0  0  0  0  0  0  0  0
   -1.1765   -7.9243   19.0874 H   0  0  0  0  0  0  0  0  0  0  0  0
    2.4893   -9.5331   18.7530 H   0  0  0  0  0  0  0  0  0  0  0  0
   -1.6825  -13.2818   21.0627 H   0  0  0  0  0  0  0  0  0  0  0  0
  1  2  2  0
  2  3  1  0
  3  4  1  0
  4  5  1  0
  5  6  2  0
  6  7  1  0
  7  8  2  0
  8  9  1  0
  9 10  1  0
 10 11  2  0
 11 12  1  0
  2 13  1  0
 13 14  2  0
 14 15  1  0
 15 16  2  0
 16 17  1  0
 17 18  1  0
 18 19  1  0
 19 20  2  0
 20 21  1  0
 21 22  2  0
 17 23  2  0
 12  4  2  0
 23 13  1  0
 11  7  1  0
 22 18  1  0
  3 24  1  0
  5 25  1  0
  6 26  1  0
 10 27  1  0
 12 28  1  0
 14 29  1  0
 15 30  1  0
 16 31  1  0
 19 32  1  0
 20 33  1  0
 22 34  1  0
 23 35  1  0
M  END
>  <Energy>  (565) 
833.47296551034003

>  <compound_id>  (565) 
46536

>  <target_id>  (565) 
1

>  <reference_id>  (565) 
68

>  <inspiration_ids>  (565) 
[80, 68]

>  <energy_score>  (565) 
703.0861018123501

>  <distance_score>  (565) 
16.47598922187086

>  <path>  (565) 
/opt/xchem-fragalysis-2/maxwin/BulkDock/SCRATCH/511023/C46536-P68/C46536-P68.minimised.mol

>  <scratch_subdir>  (565) 
/opt/xchem-fragalysis-2/maxwin/BulkDock/SCRATCH/511023/C46536-P68

>  <fragmenstein_runtime>  (565) 
21.04951310157776

>  <fragmenstein_outcome>  (565) 
too moved

>  <fragmenstein_mode>  (565) 
expansion

>  <fragmenstein_error>  (565) 


$$$$
C46542-P116
     RDKit          3D

 30 33  0  0  0  0  0  0  0  0999 V2000
    2.0356  -12.7628   24.5984 C   0  0  0  0  0  0  0  0  0  0  0  0
    1.0405  -12.5811   23.7886 C   0  0  0  0  0  0  0  0  0  0  0  0
    1.7852  -12.2163   22.6913 N   0  0  0  0  0  0  0  0  0  0  0  0
    3.2197  -12.5102   22.4382 C   0  0  0  0  0  0  0  0  0  0  0  0
    4.6046  -12.3360   20.7589 C   0  0  0  0  0  0  0  0  0  0  0  0
    4.7584  -13.0405   19.6126 N   0  0  0  0  0  0  0  0  0  0  0  0
    5.6722  -12.1186   18.7881 O   0  0  0  0  0  0  0  0  0  0  0  0
    6.6576  -11.3166   19.3630 C   0  0  0  0  0  0  0  0  0  0  0  0
    8.1291  -10.5090   18.3179 C   0  0  0  0  0  0  0  0  0  0  0  0
    9.3767  -11.1684   17.5023 C   0  0  0  0  0  0  0  0  0  0  0  0
   10.7572  -11.4056   17.8471 C   0  0  0  0  0  0  0  0  0  0  0  0
   11.1552  -10.6866   18.9140 C   0  0  0  0  0  0  0  0  0  0  0  0
   10.2696   -9.4073   19.2528 C   0  0  0  0  0  0  0  0  0  0  0  0
    8.8684   -9.4931   18.8845 C   0  0  0  0  0  0  0  0  0  0  0  0
   10.9599   -8.8468   20.9682 C   0  0  0  0  0  0  0  0  0  0  0  0
   12.0125  -10.0100   21.3271 N   0  0  0  0  0  0  0  0  0  0  0  0
   12.3236  -10.9144   20.0703 C   0  0  0  0  0  0  0  0  0  0  0  0
    6.1674  -11.5065   20.6800 N   0  0  0  0  0  0  0  0  0  0  0  0
    3.2138  -12.7496   23.8080 N   0  0  0  0  0  0  0  0  0  0  0  0
    1.9606  -13.1184   25.6226 H   0  0  0  0  0  0  0  0  0  0  0  0
   -0.0183  -12.6773   23.7832 H   0  0  0  0  0  0  0  0  0  0  0  0
    1.2332  -11.5956   22.1281 H   0  0  0  0  0  0  0  0  0  0  0  0
    9.1657  -11.6789   16.5544 H   0  0  0  0  0  0  0  0  0  0  0  0
   11.3451  -12.1640   17.3497 H   0  0  0  0  0  0  0  0  0  0  0  0
    8.3342   -8.6461   19.0234 H   0  0  0  0  0  0  0  0  0  0  0  0
   11.4839   -7.8851   20.9955 H   0  0  0  0  0  0  0  0  0  0  0  0
   10.2639   -8.7678   21.7646 H   0  0  0  0  0  0  0  0  0  0  0  0
   11.5728  -10.6014   22.0351 H   0  0  0  0  0  0  0  0  0  0  0  0
   12.4601  -11.9461   20.3998 H   0  0  0  0  0  0  0  0  0  0  0  0
   13.3235  -10.6538   19.7108 H   0  0  0  0  0  0  0  0  0  0  0  0
  1  2  2  0
  2  3  1  0
  3  4  1  0
  4  5  1  0
  5  6  2  0
  6  7  1  0
  7  8  1  0
  8  9  1  0
  9 10  2  0
 10 11  1  0
 11 12  2  0
 12 13  1  0
 13 14  2  0
 13 15  1  0
 15 16  1  0
 16 17  1  0
  8 18  2  0
  4 19  2  0
 19  1  1  0
 18  5  1  0
 14  9  1  0
 17 12  1  0
  1 20  1  0
  2 21  1  0
  3 22  1  0
 10 23  1  0
 11 24  1  0
 14 25  1  0
 15 26  1  0
 15 27  1  0
 16 28  1  0
 17 29  1  0
 17 30  1  0
M  END
>  <Energy>  (566) 
587.12389514251493

>  <compound_id>  (566) 
46542

>  <target_id>  (566) 
1

>  <reference_id>  (566) 
116

>  <inspiration_ids>  (566) 
[116, 146]

>  <energy_score>  (566) 
499.9842036617036

>  <distance_score>  (566) 
8.833367186017295

>  <path>  (566) 
/opt/xchem-fragalysis-2/maxwin/BulkDock/SCRATCH/511023/C46542-P116/C46542-P116.minimised.mol

>  <scratch_subdir>  (566) 
/opt/xchem-fragalysis-2/maxwin/BulkDock/SCRATCH/511023/C46542-P116

>  <fragmenstein_runtime>  (566) 
5.504877328872681

>  <fragmenstein_outcome>  (566) 
too moved

>  <fragmenstein_mode>  (566) 
expansion

>  <fragmenstein_error>  (566) 


$$$$
C46542-P146
     RDKit          3D

 30 33  0  0  0  0  0  0  0  0999 V2000
    7.6213   -9.3911   25.5910 C   0  0  0  0  0  0  0  0  0  0  0  0
    7.2712   -8.2955   26.3361 C   0  0  0  0  0  0  0  0  0  0  0  0
    8.3683   -7.4584   26.2581 N   0  0  0  0  0  0  0  0  0  0  0  0
    9.3743   -8.0239   25.4519 C   0  0  0  0  0  0  0  0  0  0  0  0
   11.0212   -7.0832   24.9780 C   0  0  0  0  0  0  0  0  0  0  0  0
   11.2798   -5.8818   25.5445 N   0  0  0  0  0  0  0  0  0  0  0  0
   12.2172   -5.2146   24.6878 O   0  0  0  0  0  0  0  0  0  0  0  0
   12.5461   -6.0263   23.6034 C   0  0  0  0  0  0  0  0  0  0  0  0
   13.1904   -5.1820   22.2367 C   0  0  0  0  0  0  0  0  0  0  0  0
   14.2806   -4.2864   22.3593 C   0  0  0  0  0  0  0  0  0  0  0  0
   14.8821   -3.5367   21.2571 C   0  0  0  0  0  0  0  0  0  0  0  0
   14.4287   -3.6477   19.9493 C   0  0  0  0  0  0  0  0  0  0  0  0
   13.3681   -4.4937   19.7229 C   0  0  0  0  0  0  0  0  0  0  0  0
   12.7390   -5.2034   20.8499 C   0  0  0  0  0  0  0  0  0  0  0  0
   13.1678   -4.5162   18.2078 C   0  0  0  0  0  0  0  0  0  0  0  0
   13.8974   -3.3483   17.6397 N   0  0  0  0  0  0  0  0  0  0  0  0
   14.9148   -3.0220   18.6690 C   0  0  0  0  0  0  0  0  0  0  0  0
   11.9278   -7.2486   23.8055 N   0  0  0  0  0  0  0  0  0  0  0  0
    8.8966   -9.2028   25.0281 N   0  0  0  0  0  0  0  0  0  0  0  0
    7.0482  -10.2793   25.3539 H   0  0  0  0  0  0  0  0  0  0  0  0
    6.3838   -7.9985   26.8698 H   0  0  0  0  0  0  0  0  0  0  0  0
    8.4382   -6.5240   26.6362 H   0  0  0  0  0  0  0  0  0  0  0  0
   14.7130   -4.1338   23.3501 H   0  0  0  0  0  0  0  0  0  0  0  0
   15.7216   -2.8816   21.4862 H   0  0  0  0  0  0  0  0  0  0  0  0
   11.8598   -5.7940   20.6299 H   0  0  0  0  0  0  0  0  0  0  0  0
   12.1421   -4.4660   17.8614 H   0  0  0  0  0  0  0  0  0  0  0  0
   13.6352   -5.4117   17.7906 H   0  0  0  0  0  0  0  0  0  0  0  0
   13.2276   -2.5881   17.6089 H   0  0  0  0  0  0  0  0  0  0  0  0
   15.0259   -1.9388   18.7723 H   0  0  0  0  0  0  0  0  0  0  0  0
   15.8771   -3.4605   18.3850 H   0  0  0  0  0  0  0  0  0  0  0  0
  1  2  2  0
  2  3  1  0
  3  4  1  0
  4  5  1  0
  5  6  2  0
  6  7  1  0
  7  8  1  0
  8  9  1  0
  9 10  2  0
 10 11  1  0
 11 12  2  0
 12 13  1  0
 13 14  2  0
 13 15  1  0
 15 16  1  0
 16 17  1  0
  8 18  2  0
  4 19  2  0
 19  1  1  0
 18  5  1  0
 14  9  1  0
 17 12  1  0
  1 20  1  0
  2 21  1  0
  3 22  1  0
 10 23  1  0
 11 24  1  0
 14 25  1  0
 15 26  1  0
 15 27  1  0
 16 28  1  0
 17 29  1  0
 17 30  1  0
M  END
>  <Energy>  (567) 
144.04101031110122

>  <compound_id>  (567) 
46542

>  <target_id>  (567) 
1

>  <reference_id>  (567) 
146

>  <inspiration_ids>  (567) 
[116, 146]

>  <energy_score>  (567) 
58.90247628611746

>  <distance_score>  (567) 
7.386294185038825

>  <path>  (567) 
/opt/xchem-fragalysis-2/maxwin/BulkDock/SCRATCH/511023/C46542-P146/C46542-P146.minimised.mol

>  <scratch_subdir>  (567) 
/opt/xchem-fragalysis-2/maxwin/BulkDock/SCRATCH/511023/C46542-P146

>  <fragmenstein_runtime>  (567) 
4.718544244766235

>  <fragmenstein_outcome>  (567) 
too moved

>  <fragmenstein_mode>  (567) 
expansion

>  <fragmenstein_error>  (567) 


$$$$
C46544-P116
     RDKit          3D

 39 42  0  0  0  0  0  0  0  0999 V2000
    4.1628  -13.7582   25.1743 C   0  0  0  0  0  0  0  0  0  0  0  0
    3.2263  -12.8363   24.2084 N   0  0  0  0  0  0  0  0  0  0  0  0
    1.8868  -12.6761   24.6442 C   0  0  0  0  0  0  0  0  0  0  0  0
    1.2920  -12.3869   23.5292 C   0  0  0  0  0  0  0  0  0  0  0  0
    2.3623  -12.2304   22.4419 N   0  0  0  0  0  0  0  0  0  0  0  0
    3.6476  -11.9711   22.7428 C   0  0  0  0  0  0  0  0  0  0  0  0
    5.1086  -10.4576   22.1185 C   0  0  0  0  0  0  0  0  0  0  0  0
    4.9055   -8.4522   21.9376 N   0  0  0  0  0  0  0  0  0  0  0  0
    6.3962   -8.0734   20.4010 O   0  0  0  0  0  0  0  0  0  0  0  0
    7.4056   -9.7665   19.8039 C   0  0  0  0  0  0  0  0  0  0  0  0
    9.4077   -8.8760   20.0551 C   0  0  0  0  0  0  0  0  0  0  0  0
   10.8478   -9.1799   21.2126 C   0  0  0  0  0  0  0  0  0  0  0  0
   12.1757   -8.7541   21.9592 C   0  0  0  0  0  0  0  0  0  0  0  0
   12.5962   -7.4819   21.8752 C   0  0  0  0  0  0  0  0  0  0  0  0
   11.5577   -6.7786   21.3458 C   0  0  0  0  0  0  0  0  0  0  0  0
   10.1070   -7.5804   20.8837 C   0  0  0  0  0  0  0  0  0  0  0  0
   11.7336   -5.3171   21.0813 C   0  0  0  0  0  0  0  0  0  0  0  0
   12.4952   -4.5672   22.0772 N   0  0  0  0  0  0  0  0  0  0  0  0
   13.9214   -4.5237   21.7773 C   0  0  0  0  0  0  0  0  0  0  0  0
   14.5239   -5.8775   21.4153 C   0  0  0  0  0  0  0  0  0  0  0  0
   13.9556   -7.0136   22.2747 C   0  0  0  0  0  0  0  0  0  0  0  0
    6.4739  -10.9169   20.7641 N   0  0  0  0  0  0  0  0  0  0  0  0
    5.1042  -13.2233   25.3634 H   0  0  0  0  0  0  0  0  0  0  0  0
    4.3130  -14.7096   24.6586 H   0  0  0  0  0  0  0  0  0  0  0  0
    3.5965  -13.9092   26.0858 H   0  0  0  0  0  0  0  0  0  0  0  0
    1.5151  -12.9768   25.6182 H   0  0  0  0  0  0  0  0  0  0  0  0
    0.2543  -12.3788   23.2526 H   0  0  0  0  0  0  0  0  0  0  0  0
   10.9386  -10.2018   21.7190 H   0  0  0  0  0  0  0  0  0  0  0  0
   12.7439   -9.5197   22.4867 H   0  0  0  0  0  0  0  0  0  0  0  0
   10.1260   -7.7130   22.0438 H   0  0  0  0  0  0  0  0  0  0  0  0
   12.1325   -5.1684   20.0750 H   0  0  0  0  0  0  0  0  0  0  0  0
   10.7315   -4.9611   21.1876 H   0  0  0  0  0  0  0  0  0  0  0  0
   12.1468   -3.6096   22.1227 H   0  0  0  0  0  0  0  0  0  0  0  0
   14.4341   -4.1303   22.6628 H   0  0  0  0  0  0  0  0  0  0  0  0
   14.1157   -3.8128   20.9650 H   0  0  0  0  0  0  0  0  0  0  0  0
   15.6080   -5.8201   21.5742 H   0  0  0  0  0  0  0  0  0  0  0  0
   14.3804   -6.0865   20.3490 H   0  0  0  0  0  0  0  0  0  0  0  0
   13.9475   -6.7307   23.3344 H   0  0  0  0  0  0  0  0  0  0  0  0
   14.6470   -7.8619   22.1837 H   0  0  0  0  0  0  0  0  0  0  0  0
  1  2  1  0
  2  3  1  0
  3  4  2  0
  4  5  1  0
  5  6  2  0
  6  7  1  0
  7  8  2  0
  8  9  1  0
  9 10  1  0
 10 11  1  0
 11 12  2  0
 12 13  1  0
 13 14  2  0
 14 15  1  0
 15 16  2  0
 15 17  1  0
 17 18  1  0
 18 19  1  0
 19 20  1  0
 20 21  1  0
 10 22  2  0
  6  2  1  0
 22  7  1  0
 16 11  1  0
 21 14  1  0
  1 23  1  0
  1 24  1  0
  1 25  1  0
  3 26  1  0
  4 27  1  0
 12 28  1  0
 13 29  1  0
 16 30  1  0
 17 31  1  0
 17 32  1  0
 18 33  1  0
 19 34  1  0
 19 35  1  0
 20 36  1  0
 20 37  1  0
 21 38  1  0
 21 39  1  0
M  END
>  <Energy>  (568) 
1536.1691926106485

>  <compound_id>  (568) 
46544

>  <target_id>  (568) 
1

>  <reference_id>  (568) 
116

>  <inspiration_ids>  (568) 
[116, 146]

>  <energy_score>  (568) 
1424.1299803600546

>  <distance_score>  (568) 
7.625155938353446

>  <path>  (568) 
/opt/xchem-fragalysis-2/maxwin/BulkDock/SCRATCH/511023/C46544-P116/C46544-P116.minimised.mol

>  <scratch_subdir>  (568) 
/opt/xchem-fragalysis-2/maxwin/BulkDock/SCRATCH/511023/C46544-P116

>  <fragmenstein_runtime>  (568) 
9.001880645751953

>  <fragmenstein_outcome>  (568) 
too moved

>  <fragmenstein_mode>  (568) 
expansion

>  <fragmenstein_error>  (568) 


$$$$
C46544-P146
     RDKit          3D

 39 42  0  0  0  0  0  0  0  0999 V2000
    7.8068   -6.6844   25.5189 C   0  0  0  0  0  0  0  0  0  0  0  0
    6.4481   -6.7652   25.0592 N   0  0  0  0  0  0  0  0  0  0  0  0
    5.4523   -7.0832   25.9702 C   0  0  0  0  0  0  0  0  0  0  0  0
    4.5051   -7.7275   25.2374 C   0  0  0  0  0  0  0  0  0  0  0  0
    4.8197   -7.6603   23.9180 N   0  0  0  0  0  0  0  0  0  0  0  0
    6.0004   -7.0390   23.7677 C   0  0  0  0  0  0  0  0  0  0  0  0
    6.8746   -6.6686   22.1123 C   0  0  0  0  0  0  0  0  0  0  0  0
    7.4749   -5.4147   22.0996 N   0  0  0  0  0  0  0  0  0  0  0  0
    7.4049   -4.9992   20.3088 O   0  0  0  0  0  0  0  0  0  0  0  0
    7.6024   -6.3641   19.4279 C   0  0  0  0  0  0  0  0  0  0  0  0
    9.6769   -5.8279   19.2791 C   0  0  0  0  0  0  0  0  0  0  0  0
   11.0111   -5.7459   20.4018 C   0  0  0  0  0  0  0  0  0  0  0  0
   12.5557   -5.0281   20.2126 C   0  0  0  0  0  0  0  0  0  0  0  0
   13.1564   -4.2765   18.9289 C   0  0  0  0  0  0  0  0  0  0  0  0
   12.2540   -4.2165   17.6400 C   0  0  0  0  0  0  0  0  0  0  0  0
   10.7390   -4.9516   17.8412 C   0  0  0  0  0  0  0  0  0  0  0  0
   12.5136   -3.3440   16.4444 C   0  0  0  0  0  0  0  0  0  0  0  0
   13.8502   -2.7455   16.3669 N   0  0  0  0  0  0  0  0  0  0  0  0
   14.9164   -3.7251   16.5559 C   0  0  0  0  0  0  0  0  0  0  0  0
   15.4774   -3.7248   17.9655 C   0  0  0  0  0  0  0  0  0  0  0  0
   14.4514   -3.5276   19.0701 C   0  0  0  0  0  0  0  0  0  0  0  0
    6.9765   -7.3496   20.4586 N   0  0  0  0  0  0  0  0  0  0  0  0
    7.8786   -7.1299   26.5178 H   0  0  0  0  0  0  0  0  0  0  0  0
    8.0931   -5.6465   25.6053 H   0  0  0  0  0  0  0  0  0  0  0  0
    8.4385   -7.2838   24.8701 H   0  0  0  0  0  0  0  0  0  0  0  0
    5.5837   -6.9311   27.0306 H   0  0  0  0  0  0  0  0  0  0  0  0
    3.6226   -8.2456   25.5701 H   0  0  0  0  0  0  0  0  0  0  0  0
   11.1786   -6.5911   21.0557 H   0  0  0  0  0  0  0  0  0  0  0  0
   13.2070   -5.1191   21.0871 H   0  0  0  0  0  0  0  0  0  0  0  0
   11.5852   -4.9743   18.5410 H   0  0  0  0  0  0  0  0  0  0  0  0
   12.2920   -3.8872   15.5275 H   0  0  0  0  0  0  0  0  0  0  0  0
   11.7993   -2.5146   16.4801 H   0  0  0  0  0  0  0  0  0  0  0  0
   13.9454   -2.3071   15.4505 H   0  0  0  0  0  0  0  0  0  0  0  0
   15.7379   -3.4979   15.8659 H   0  0  0  0  0  0  0  0  0  0  0  0
   14.5872   -4.7414   16.3227 H   0  0  0  0  0  0  0  0  0  0  0  0
   16.2374   -2.9386   18.0600 H   0  0  0  0  0  0  0  0  0  0  0  0
   16.0019   -4.6758   18.1254 H   0  0  0  0  0  0  0  0  0  0  0  0
   14.2261   -2.4607   19.1592 H   0  0  0  0  0  0  0  0  0  0  0  0
   14.9236   -3.8046   20.0206 H   0  0  0  0  0  0  0  0  0  0  0  0
  1  2  1  0
  2  3  1  0
  3  4  2  0
  4  5  1  0
  5  6  2  0
  6  7  1  0
  7  8  2  0
  8  9  1  0
  9 10  1  0
 10 11  1  0
 11 12  2  0
 12 13  1  0
 13 14  2  0
 14 15  1  0
 15 16  2  0
 15 17  1  0
 17 18  1  0
 18 19  1  0
 19 20  1  0
 20 21  1  0
 10 22  2  0
  6  2  1  0
 22  7  1  0
 16 11  1  0
 21 14  1  0
  1 23  1  0
  1 24  1  0
  1 25  1  0
  3 26  1  0
  4 27  1  0
 12 28  1  0
 13 29  1  0
 16 30  1  0
 17 31  1  0
 17 32  1  0
 18 33  1  0
 19 34  1  0
 19 35  1  0
 20 36  1  0
 20 37  1  0
 21 38  1  0
 21 39  1  0
M  END
>  <Energy>  (569) 
781.27721830838709

>  <compound_id>  (569) 
46544

>  <target_id>  (569) 
1

>  <reference_id>  (569) 
146

>  <inspiration_ids>  (569) 
[116, 146]

>  <energy_score>  (569) 
669.2380060577626

>  <distance_score>  (569) 
6.628444152446343

>  <path>  (569) 
/opt/xchem-fragalysis-2/maxwin/BulkDock/SCRATCH/511023/C46544-P146/C46544-P146.minimised.mol

>  <scratch_subdir>  (569) 
/opt/xchem-fragalysis-2/maxwin/BulkDock/SCRATCH/511023/C46544-P146

>  <fragmenstein_runtime>  (569) 
11.048446655273438

>  <fragmenstein_outcome>  (569) 
too moved

>  <fragmenstein_mode>  (569) 
expansion

>  <fragmenstein_error>  (569) 


$$$$
C46545-P116
     RDKit          3D

 47 49  0  0  0  0  0  0  0  0999 V2000
   13.1067   -7.1811   26.7919 C   0  0  0  0  0  0  0  0  0  0  0  0
   12.0432   -6.2905   26.1168 C   0  0  0  0  0  0  0  0  0  0  0  0
   11.1751   -6.9104   25.0057 N   0  0  0  0  0  0  0  0  0  0  0  0
   10.2479   -7.2118   26.2053 C   0  0  0  0  0  0  0  0  0  0  0  0
    8.9796   -8.0079   25.8878 C   0  0  0  0  0  0  0  0  0  0  0  0
    7.6555   -7.5833   25.9256 C   0  0  0  0  0  0  0  0  0  0  0  0
    6.7836   -8.6369   25.9287 N   0  0  0  0  0  0  0  0  0  0  0  0
    7.5334   -9.7059   25.8245 C   0  0  0  0  0  0  0  0  0  0  0  0
    8.8649   -9.3842   25.8110 N   0  0  0  0  0  0  0  0  0  0  0  0
    9.9232  -10.3646   25.7958 C   0  0  0  0  0  0  0  0  0  0  0  0
   11.9658   -7.7823   24.1932 C   0  0  0  0  0  0  0  0  0  0  0  0
   12.1801   -8.9638   24.2935 O   0  0  0  0  0  0  0  0  0  0  0  0
   12.7595   -7.0823   23.0625 C   0  0  0  0  0  0  0  0  0  0  0  0
   13.7359   -7.8476   22.4118 C   0  0  0  0  0  0  0  0  0  0  0  0
   14.5894   -7.2965   21.4438 C   0  0  0  0  0  0  0  0  0  0  0  0
   14.4894   -5.9568   21.0359 C   0  0  0  0  0  0  0  0  0  0  0  0
   13.5495   -5.1476   21.6936 C   0  0  0  0  0  0  0  0  0  0  0  0
   12.6926   -5.7251   22.6940 C   0  0  0  0  0  0  0  0  0  0  0  0
   13.4059   -3.6622   21.4382 C   0  0  0  0  0  0  0  0  0  0  0  0
   14.2729   -2.9909   20.3679 C   0  0  0  0  0  0  0  0  0  0  0  0
   14.1143   -3.6383   18.9964 C   0  0  0  0  0  0  0  0  0  0  0  0
   14.8553   -4.8684   18.7911 N   0  0  0  0  0  0  0  0  0  0  0  0
   15.4534   -5.4769   19.9696 C   0  0  0  0  0  0  0  0  0  0  0  0
   13.8420   -7.5419   26.0654 H   0  0  0  0  0  0  0  0  0  0  0  0
   12.6915   -8.0524   27.3034 H   0  0  0  0  0  0  0  0  0  0  0  0
   13.6547   -6.5901   27.5337 H   0  0  0  0  0  0  0  0  0  0  0  0
   11.5564   -5.6049   26.8306 H   0  0  0  0  0  0  0  0  0  0  0  0
   12.6499   -5.5677   25.5490 H   0  0  0  0  0  0  0  0  0  0  0  0
    9.8336   -6.2671   26.5962 H   0  0  0  0  0  0  0  0  0  0  0  0
   10.7170   -7.8068   26.9983 H   0  0  0  0  0  0  0  0  0  0  0  0
    7.2885   -6.5677   26.0217 H   0  0  0  0  0  0  0  0  0  0  0  0
    7.1720  -10.7250   25.7663 H   0  0  0  0  0  0  0  0  0  0  0  0
   10.1808  -10.5724   24.7558 H   0  0  0  0  0  0  0  0  0  0  0  0
    9.5679  -11.2797   26.2782 H   0  0  0  0  0  0  0  0  0  0  0  0
   10.7864   -9.9888   26.3470 H   0  0  0  0  0  0  0  0  0  0  0  0
   13.8689   -8.8980   22.6680 H   0  0  0  0  0  0  0  0  0  0  0  0
   15.3266   -7.9519   20.9798 H   0  0  0  0  0  0  0  0  0  0  0  0
   11.9899   -5.0690   23.2041 H   0  0  0  0  0  0  0  0  0  0  0  0
   13.6002   -3.1447   22.3869 H   0  0  0  0  0  0  0  0  0  0  0  0
   12.3539   -3.4865   21.1984 H   0  0  0  0  0  0  0  0  0  0  0  0
   13.9906   -1.9351   20.2993 H   0  0  0  0  0  0  0  0  0  0  0  0
   15.3223   -2.9568   20.6820 H   0  0  0  0  0  0  0  0  0  0  0  0
   14.4529   -2.9260   18.2353 H   0  0  0  0  0  0  0  0  0  0  0  0
   13.0530   -3.8154   18.7894 H   0  0  0  0  0  0  0  0  0  0  0  0
   14.2827   -5.5784   18.3103 H   0  0  0  0  0  0  0  0  0  0  0  0
   16.2142   -4.8322   20.4248 H   0  0  0  0  0  0  0  0  0  0  0  0
   16.0305   -6.3350   19.6008 H   0  0  0  0  0  0  0  0  0  0  0  0
  1  2  1  0
  2  3  1  0
  3  4  1  0
  4  5  1  0
  5  6  2  0
  6  7  1  0
  7  8  2  0
  8  9  1  0
  9 10  1  0
  3 11  1  0
 11 12  2  0
 11 13  1  0
 13 14  2  0
 14 15  1  0
 15 16  2  0
 16 17  1  0
 17 18  2  0
 17 19  1  0
 19 20  1  0
 20 21  1  0
 21 22  1  0
 22 23  1  0
  9  5  1  0
 18 13  1  0
 23 16  1  0
  1 24  1  0
  1 25  1  0
  1 26  1  0
  2 27  1  0
  2 28  1  0
  4 29  1  0
  4 30  1  0
  6 31  1  0
  8 32  1  0
 10 33  1  0
 10 34  1  0
 10 35  1  0
 14 36  1  0
 15 37  1  0
 18 38  1  0
 19 39  1  0
 19 40  1  0
 20 41  1  0
 20 42  1  0
 21 43  1  0
 21 44  1  0
 22 45  1  0
 23 46  1  0
 23 47  1  0
M  END
>  <Energy>  (570) 
103.85294947950399

>  <compound_id>  (570) 
46545

>  <target_id>  (570) 
1

>  <reference_id>  (570) 
116

>  <inspiration_ids>  (570) 
[116, 146]

>  <energy_score>  (570) 
25.58992751938814

>  <distance_score>  (570) 
8.606657330616823

>  <path>  (570) 
/opt/xchem-fragalysis-2/maxwin/BulkDock/SCRATCH/511023/C46545-P116/C46545-P116.minimised.mol

>  <scratch_subdir>  (570) 
/opt/xchem-fragalysis-2/maxwin/BulkDock/SCRATCH/511023/C46545-P116

>  <fragmenstein_runtime>  (570) 
19.35204768180847

>  <fragmenstein_outcome>  (570) 
too moved

>  <fragmenstein_mode>  (570) 
expansion

>  <fragmenstein_error>  (570) 


$$$$
C46545-P146
     RDKit          3D

 47 49  0  0  0  0  0  0  0  0999 V2000
    9.2911   -8.2718   26.9598 C   0  0  0  0  0  0  0  0  0  0  0  0
    9.6029   -6.8715   27.5061 C   0  0  0  0  0  0  0  0  0  0  0  0
    9.4002   -5.7628   26.4685 N   0  0  0  0  0  0  0  0  0  0  0  0
    8.1013   -5.5685   27.2493 C   0  0  0  0  0  0  0  0  0  0  0  0
    6.8136   -6.3573   27.0699 C   0  0  0  0  0  0  0  0  0  0  0  0
    5.8209   -6.6147   28.0068 C   0  0  0  0  0  0  0  0  0  0  0  0
    4.6841   -7.1472   27.4374 N   0  0  0  0  0  0  0  0  0  0  0  0
    4.9765   -7.2487   26.1602 C   0  0  0  0  0  0  0  0  0  0  0  0
    6.2308   -6.7667   25.8935 N   0  0  0  0  0  0  0  0  0  0  0  0
    6.7753   -6.6220   24.5728 C   0  0  0  0  0  0  0  0  0  0  0  0
   10.5918   -4.9266   26.3887 C   0  0  0  0  0  0  0  0  0  0  0  0
   10.8842   -3.9212   26.9891 O   0  0  0  0  0  0  0  0  0  0  0  0
   11.6291   -5.2649   25.3179 C   0  0  0  0  0  0  0  0  0  0  0  0
   12.1206   -6.5473   25.1085 C   0  0  0  0  0  0  0  0  0  0  0  0
   13.1839   -6.7663   24.2108 C   0  0  0  0  0  0  0  0  0  0  0  0
   13.7658   -5.7295   23.4546 C   0  0  0  0  0  0  0  0  0  0  0  0
   13.2898   -4.4281   23.6460 C   0  0  0  0  0  0  0  0  0  0  0  0
   12.2382   -4.2113   24.5776 C   0  0  0  0  0  0  0  0  0  0  0  0
   13.9690   -3.2732   22.9414 C   0  0  0  0  0  0  0  0  0  0  0  0
   13.8979   -3.3631   21.4152 C   0  0  0  0  0  0  0  0  0  0  0  0
   14.8935   -4.3306   20.7864 C   0  0  0  0  0  0  0  0  0  0  0  0
   14.6541   -5.7320   21.1250 N   0  0  0  0  0  0  0  0  0  0  0  0
   14.9421   -6.0028   22.5392 C   0  0  0  0  0  0  0  0  0  0  0  0
    9.6274   -8.3812   25.9243 H   0  0  0  0  0  0  0  0  0  0  0  0
    8.2276   -8.5127   26.9927 H   0  0  0  0  0  0  0  0  0  0  0  0
    9.8049   -9.0266   27.5648 H   0  0  0  0  0  0  0  0  0  0  0  0
   10.6928   -6.8945   27.6653 H   0  0  0  0  0  0  0  0  0  0  0  0
    9.2744   -6.7490   28.5526 H   0  0  0  0  0  0  0  0  0  0  0  0
    7.7982   -4.5975   26.8157 H   0  0  0  0  0  0  0  0  0  0  0  0
    8.2545   -5.2140   28.2854 H   0  0  0  0  0  0  0  0  0  0  0  0
    5.8580   -6.3855   29.0642 H   0  0  0  0  0  0  0  0  0  0  0  0
    4.3348   -7.6410   25.3798 H   0  0  0  0  0  0  0  0  0  0  0  0
    7.6676   -7.2424   24.5079 H   0  0  0  0  0  0  0  0  0  0  0  0
    6.0345   -6.9396   23.8435 H   0  0  0  0  0  0  0  0  0  0  0  0
    6.9948   -5.5708   24.4064 H   0  0  0  0  0  0  0  0  0  0  0  0
   11.7448   -7.3867   25.6805 H   0  0  0  0  0  0  0  0  0  0  0  0
   13.5934   -7.7722   24.1626 H   0  0  0  0  0  0  0  0  0  0  0  0
   11.8916   -3.1920   24.7550 H   0  0  0  0  0  0  0  0  0  0  0  0
   15.0137   -3.2166   23.2738 H   0  0  0  0  0  0  0  0  0  0  0  0
   13.5237   -2.3338   23.2800 H   0  0  0  0  0  0  0  0  0  0  0  0
   12.8854   -3.6428   21.1045 H   0  0  0  0  0  0  0  0  0  0  0  0
   14.1137   -2.3673   21.0104 H   0  0  0  0  0  0  0  0  0  0  0  0
   14.8059   -4.2377   19.6971 H   0  0  0  0  0  0  0  0  0  0  0  0
   15.9222   -4.0410   21.0345 H   0  0  0  0  0  0  0  0  0  0  0  0
   15.3025   -6.2976   20.5728 H   0  0  0  0  0  0  0  0  0  0  0  0
   15.2137   -7.0618   22.6262 H   0  0  0  0  0  0  0  0  0  0  0  0
   15.8320   -5.4658   22.8927 H   0  0  0  0  0  0  0  0  0  0  0  0
  1  2  1  0
  2  3  1  0
  3  4  1  0
  4  5  1  0
  5  6  2  0
  6  7  1  0
  7  8  2  0
  8  9  1  0
  9 10  1  0
  3 11  1  0
 11 12  2  0
 11 13  1  0
 13 14  2  0
 14 15  1  0
 15 16  2  0
 16 17  1  0
 17 18  2  0
 17 19  1  0
 19 20  1  0
 20 21  1  0
 21 22  1  0
 22 23  1  0
  9  5  1  0
 18 13  1  0
 23 16  1  0
  1 24  1  0
  1 25  1  0
  1 26  1  0
  2 27  1  0
  2 28  1  0
  4 29  1  0
  4 30  1  0
  6 31  1  0
  8 32  1  0
 10 33  1  0
 10 34  1  0
 10 35  1  0
 14 36  1  0
 15 37  1  0
 18 38  1  0
 19 39  1  0
 19 40  1  0
 20 41  1  0
 20 42  1  0
 21 43  1  0
 21 44  1  0
 22 45  1  0
 23 46  1  0
 23 47  1  0
M  END
>  <Energy>  (571) 
107.96947397529007

>  <compound_id>  (571) 
46545

>  <target_id>  (571) 
1

>  <reference_id>  (571) 
146

>  <inspiration_ids>  (571) 
[116, 146]

>  <energy_score>  (571) 
29.70645201517442

>  <distance_score>  (571) 
9.097545487243872

>  <path>  (571) 
/opt/xchem-fragalysis-2/maxwin/BulkDock/SCRATCH/511023/C46545-P146/C46545-P146.minimised.mol

>  <scratch_subdir>  (571) 
/opt/xchem-fragalysis-2/maxwin/BulkDock/SCRATCH/511023/C46545-P146

>  <fragmenstein_runtime>  (571) 
21.576963424682617

>  <fragmenstein_outcome>  (571) 
too moved

>  <fragmenstein_mode>  (571) 
expansion

>  <fragmenstein_error>  (571) 


$$$$
C46546-P116
     RDKit          3D

 41 43  0  0  0  0  0  0  0  0999 V2000
    7.4151   -5.9425   17.2258 C   0  0  0  0  0  0  0  0  0  0  0  0
    7.4952   -4.9657   18.4087 C   0  0  0  0  0  0  0  0  0  0  0  0
    6.8853   -5.1780   19.7921 N   0  0  0  0  0  0  0  0  0  0  0  0
    5.5617   -4.5844   18.9219 C   0  0  0  0  0  0  0  0  0  0  0  0
    5.8644   -3.0586   18.5515 C   0  0  0  0  0  0  0  0  0  0  0  0
    6.6299   -2.1126   19.2303 C   0  0  0  0  0  0  0  0  0  0  0  0
    7.0634   -1.1156   18.3782 N   0  0  0  0  0  0  0  0  0  0  0  0
    6.4898   -1.3774   17.2267 C   0  0  0  0  0  0  0  0  0  0  0  0
    5.7183   -2.5089   17.2929 N   0  0  0  0  0  0  0  0  0  0  0  0
    4.9659   -3.0669   16.1969 C   0  0  0  0  0  0  0  0  0  0  0  0
    6.5382   -6.7482   20.7866 C   0  0  0  0  0  0  0  0  0  0  0  0
    6.7655   -7.7077   20.1504 O   0  0  0  0  0  0  0  0  0  0  0  0
    5.7344   -7.1599   22.5244 C   0  0  0  0  0  0  0  0  0  0  0  0
    5.7962   -7.0060   23.8641 C   0  0  0  0  0  0  0  0  0  0  0  0
    5.1136   -8.2017   24.4068 C   0  0  0  0  0  0  0  0  0  0  0  0
    4.1931   -9.4732   23.2867 C   0  0  0  0  0  0  0  0  0  0  0  0
    4.9562  -10.3674   22.7368 C   0  0  0  0  0  0  0  0  0  0  0  0
    4.5898   -8.4958   22.4629 C   0  0  0  0  0  0  0  0  0  0  0  0
    5.5642  -11.3164   21.2374 C   0  0  0  0  0  0  0  0  0  0  0  0
    4.2846  -11.8976   21.3565 N   0  0  0  0  0  0  0  0  0  0  0  0
    3.6912  -11.3878   22.5561 C   0  0  0  0  0  0  0  0  0  0  0  0
    8.1055   -6.7782   17.3751 H   0  0  0  0  0  0  0  0  0  0  0  0
    6.4165   -6.2979   16.9720 H   0  0  0  0  0  0  0  0  0  0  0  0
    7.7903   -5.4336   16.3281 H   0  0  0  0  0  0  0  0  0  0  0  0
    8.5399   -5.1552   18.6787 H   0  0  0  0  0  0  0  0  0  0  0  0
    7.5675   -3.9898   17.9774 H   0  0  0  0  0  0  0  0  0  0  0  0
    5.2575   -5.2193   18.0859 H   0  0  0  0  0  0  0  0  0  0  0  0
    4.6416   -4.4384   19.4849 H   0  0  0  0  0  0  0  0  0  0  0  0
    7.0061   -2.1895   20.2451 H   0  0  0  0  0  0  0  0  0  0  0  0
    6.5865   -0.7868   16.3250 H   0  0  0  0  0  0  0  0  0  0  0  0
    4.7448   -2.2786   15.4727 H   0  0  0  0  0  0  0  0  0  0  0  0
    4.0304   -3.4786   16.5839 H   0  0  0  0  0  0  0  0  0  0  0  0
    5.5673   -3.8502   15.7299 H   0  0  0  0  0  0  0  0  0  0  0  0
    6.3761   -6.3297   24.4529 H   0  0  0  0  0  0  0  0  0  0  0  0
    5.3577   -8.3699   25.4658 H   0  0  0  0  0  0  0  0  0  0  0  0
    5.0827   -9.9461   22.0524 H   0  0  0  0  0  0  0  0  0  0  0  0
    6.5153  -11.7887   21.5153 H   0  0  0  0  0  0  0  0  0  0  0  0
    5.8403  -11.1541   20.1880 H   0  0  0  0  0  0  0  0  0  0  0  0
    3.9458  -12.7124   20.8525 H   0  0  0  0  0  0  0  0  0  0  0  0
    3.8297  -12.1463   23.3159 H   0  0  0  0  0  0  0  0  0  0  0  0
    2.7273  -11.9274   22.8079 H   0  0  0  0  0  0  0  0  0  0  0  0
  1  2  1  0
  2  3  1  0
  3  4  1  0
  4  5  1  0
  5  6  2  0
  6  7  1  0
  7  8  2  0
  8  9  1  0
  9 10  1  0
  3 11  1  0
 11 12  2  0
 11 13  1  0
 13 14  2  0
 14 15  1  0
 15 16  2  0
 16 17  1  0
 17 18  2  0
 17 19  1  0
 19 20  1  0
 20 21  1  0
  9  5  1  0
 18 13  1  0
 21 16  1  0
  1 22  1  0
  1 23  1  0
  1 24  1  0
  2 25  1  0
  2 26  1  0
  4 27  1  0
  4 28  1  0
  6 29  1  0
  8 30  1  0
 10 31  1  0
 10 32  1  0
 10 33  1  0
 14 34  1  0
 15 35  1  0
 18 36  1  0
 19 37  1  0
 19 38  1  0
 20 39  1  0
 21 40  1  0
 21 41  1  0
M  END
>  <Energy>  (572) 
1429.0351853992006

>  <compound_id>  (572) 
46546

>  <target_id>  (572) 
1

>  <reference_id>  (572) 
116

>  <inspiration_ids>  (572) 
[116, 146]

>  <energy_score>  (572) 
1388.5958104695032

>  <distance_score>  (572) 
11.34909982503731

>  <path>  (572) 
/opt/xchem-fragalysis-2/maxwin/BulkDock/SCRATCH/511023/C46546-P116/C46546-P116.minimised.mol

>  <scratch_subdir>  (572) 
/opt/xchem-fragalysis-2/maxwin/BulkDock/SCRATCH/511023/C46546-P116

>  <fragmenstein_runtime>  (572) 
10.44690465927124

>  <fragmenstein_outcome>  (572) 
too moved

>  <fragmenstein_mode>  (572) 
expansion

>  <fragmenstein_error>  (572) 


$$$$
C46546-P146
     RDKit          3D

 41 43  0  0  0  0  0  0  0  0999 V2000
    4.1557   -2.9728   13.8473 C   0  0  0  0  0  0  0  0  0  0  0  0
    5.2726   -3.0763   14.9051 C   0  0  0  0  0  0  0  0  0  0  0  0
    4.6227   -3.5922   16.1436 N   0  0  0  0  0  0  0  0  0  0  0  0
    6.0426   -3.2225   16.7685 C   0  0  0  0  0  0  0  0  0  0  0  0
    7.4568   -3.3333   16.1368 C   0  0  0  0  0  0  0  0  0  0  0  0
    8.3435   -2.3231   15.7706 C   0  0  0  0  0  0  0  0  0  0  0  0
    9.5417   -2.8217   15.3316 N   0  0  0  0  0  0  0  0  0  0  0  0
    9.3969   -4.1260   15.3660 C   0  0  0  0  0  0  0  0  0  0  0  0
    8.1674   -4.4855   15.8625 N   0  0  0  0  0  0  0  0  0  0  0  0
    7.7228   -5.8452   16.0563 C   0  0  0  0  0  0  0  0  0  0  0  0
    4.2485   -4.9243   16.5193 C   0  0  0  0  0  0  0  0  0  0  0  0
    4.4473   -5.9764   15.9691 O   0  0  0  0  0  0  0  0  0  0  0  0
    3.3599   -4.9937   17.7759 C   0  0  0  0  0  0  0  0  0  0  0  0
    3.2421   -3.9542   18.7188 C   0  0  0  0  0  0  0  0  0  0  0  0
    2.2934   -4.0151   19.7699 C   0  0  0  0  0  0  0  0  0  0  0  0
    1.4354   -5.1001   19.8558 C   0  0  0  0  0  0  0  0  0  0  0  0
    1.5238   -6.1348   18.9343 C   0  0  0  0  0  0  0  0  0  0  0  0
    2.4714   -6.0957   17.9004 C   0  0  0  0  0  0  0  0  0  0  0  0
    0.4568   -7.1419   19.2437 C   0  0  0  0  0  0  0  0  0  0  0  0
   -0.0440   -6.7764   20.5886 N   0  0  0  0  0  0  0  0  0  0  0  0
    0.3100   -5.3650   20.8044 C   0  0  0  0  0  0  0  0  0  0  0  0
    4.5622   -2.6005   12.9016 H   0  0  0  0  0  0  0  0  0  0  0  0
    3.6955   -3.9496   13.6623 H   0  0  0  0  0  0  0  0  0  0  0  0
    3.3676   -2.2880   14.1787 H   0  0  0  0  0  0  0  0  0  0  0  0
    5.6407   -2.0410   14.9702 H   0  0  0  0  0  0  0  0  0  0  0  0
    5.9507   -3.8105   14.4534 H   0  0  0  0  0  0  0  0  0  0  0  0
    5.9210   -2.1846   17.1228 H   0  0  0  0  0  0  0  0  0  0  0  0
    6.1033   -3.8105   17.6968 H   0  0  0  0  0  0  0  0  0  0  0  0
    8.1746   -1.2543   15.8213 H   0  0  0  0  0  0  0  0  0  0  0  0
   10.1379   -4.8538   15.0616 H   0  0  0  0  0  0  0  0  0  0  0  0
    8.5916   -6.5082   16.0858 H   0  0  0  0  0  0  0  0  0  0  0  0
    7.0754   -6.1144   15.2192 H   0  0  0  0  0  0  0  0  0  0  0  0
    7.1865   -5.9125   17.0053 H   0  0  0  0  0  0  0  0  0  0  0  0
    3.8684   -3.0713   18.6460 H   0  0  0  0  0  0  0  0  0  0  0  0
    2.2266   -3.2021   20.4862 H   0  0  0  0  0  0  0  0  0  0  0  0
    2.5005   -6.9031   17.1719 H   0  0  0  0  0  0  0  0  0  0  0  0
    0.8476   -8.1581   19.2394 H   0  0  0  0  0  0  0  0  0  0  0  0
   -0.3494   -7.0574   18.5067 H   0  0  0  0  0  0  0  0  0  0  0  0
   -1.0505   -6.9092   20.6382 H   0  0  0  0  0  0  0  0  0  0  0  0
   -0.5386   -4.7207   20.5479 H   0  0  0  0  0  0  0  0  0  0  0  0
    0.5875   -5.1912   21.8463 H   0  0  0  0  0  0  0  0  0  0  0  0
  1  2  1  0
  2  3  1  0
  3  4  1  0
  4  5  1  0
  5  6  2  0
  6  7  1  0
  7  8  2  0
  8  9  1  0
  9 10  1  0
  3 11  1  0
 11 12  2  0
 11 13  1  0
 13 14  2  0
 14 15  1  0
 15 16  2  0
 16 17  1  0
 17 18  2  0
 17 19  1  0
 19 20  1  0
 20 21  1  0
  9  5  1  0
 18 13  1  0
 21 16  1  0
  1 22  1  0
  1 23  1  0
  1 24  1  0
  2 25  1  0
  2 26  1  0
  4 27  1  0
  4 28  1  0
  6 29  1  0
  8 30  1  0
 10 31  1  0
 10 32  1  0
 10 33  1  0
 14 34  1  0
 15 35  1  0
 18 36  1  0
 19 37  1  0
 19 38  1  0
 20 39  1  0
 21 40  1  0
 21 41  1  0
M  END
>  <Energy>  (573) 
104.2530708759996

>  <compound_id>  (573) 
46546

>  <target_id>  (573) 
1

>  <reference_id>  (573) 
146

>  <inspiration_ids>  (573) 
[116, 146]

>  <energy_score>  (573) 
63.81369594630149

>  <distance_score>  (573) 
11.722497820097628

>  <path>  (573) 
/opt/xchem-fragalysis-2/maxwin/BulkDock/SCRATCH/511023/C46546-P146/C46546-P146.minimised.mol

>  <scratch_subdir>  (573) 
/opt/xchem-fragalysis-2/maxwin/BulkDock/SCRATCH/511023/C46546-P146

>  <fragmenstein_runtime>  (573) 
23.440857648849487

>  <fragmenstein_outcome>  (573) 
too moved

>  <fragmenstein_mode>  (573) 
expansion

>  <fragmenstein_error>  (573) 


$$$$
C46547-P116
     RDKit          3D

 44 46  0  0  0  0  0  0  0  0999 V2000
   12.4823   -9.3383   26.9438 C   0  0  0  0  0  0  0  0  0  0  0  0
   11.8585   -7.9781   26.5800 C   0  0  0  0  0  0  0  0  0  0  0  0
   12.0759   -7.3857   25.2101 N   0  0  0  0  0  0  0  0  0  0  0  0
   11.0060   -8.4373   24.8259 C   0  0  0  0  0  0  0  0  0  0  0  0
    9.5752   -8.6086   25.3970 C   0  0  0  0  0  0  0  0  0  0  0  0
    8.8521   -9.7987   25.4790 C   0  0  0  0  0  0  0  0  0  0  0  0
    7.5829   -9.6079   25.9447 N   0  0  0  0  0  0  0  0  0  0  0  0
    7.4937   -8.3208   26.1691 C   0  0  0  0  0  0  0  0  0  0  0  0
    8.6793   -7.6783   25.8994 N   0  0  0  0  0  0  0  0  0  0  0  0
    8.9039   -6.2829   26.2013 C   0  0  0  0  0  0  0  0  0  0  0  0
   13.2135   -7.4791   24.3099 C   0  0  0  0  0  0  0  0  0  0  0  0
   14.2269   -8.1269   24.3957 O   0  0  0  0  0  0  0  0  0  0  0  0
   13.2462   -6.5551   23.0889 C   0  0  0  0  0  0  0  0  0  0  0  0
   12.4584   -5.4183   22.9457 C   0  0  0  0  0  0  0  0  0  0  0  0
   12.5833   -4.5865   21.8082 C   0  0  0  0  0  0  0  0  0  0  0  0
   13.5440   -4.8247   20.8098 C   0  0  0  0  0  0  0  0  0  0  0  0
   14.4356   -5.8798   21.0057 C   0  0  0  0  0  0  0  0  0  0  0  0
   14.2526   -6.7506   22.1071 C   0  0  0  0  0  0  0  0  0  0  0  0
   15.5786   -6.0931   20.0367 C   0  0  0  0  0  0  0  0  0  0  0  0
   15.7710   -4.9296   19.0494 C   0  0  0  0  0  0  0  0  0  0  0  0
   14.4960   -4.4516   18.5117 N   0  0  0  0  0  0  0  0  0  0  0  0
   13.6888   -3.9082   19.6116 C   0  0  0  0  0  0  0  0  0  0  0  0
   11.8817  -10.1874   26.6064 H   0  0  0  0  0  0  0  0  0  0  0  0
   12.5593   -9.4225   28.0337 H   0  0  0  0  0  0  0  0  0  0  0  0
   13.4901   -9.4414   26.5323 H   0  0  0  0  0  0  0  0  0  0  0  0
   10.9098   -7.7724   27.0805 H   0  0  0  0  0  0  0  0  0  0  0  0
   12.5026   -7.2898   27.1542 H   0  0  0  0  0  0  0  0  0  0  0  0
   10.8009   -8.1545   23.7806 H   0  0  0  0  0  0  0  0  0  0  0  0
   11.4822   -9.4203   24.6757 H   0  0  0  0  0  0  0  0  0  0  0  0
    9.1884  -10.7901   25.1982 H   0  0  0  0  0  0  0  0  0  0  0  0
    6.6146   -7.8034   26.5359 H   0  0  0  0  0  0  0  0  0  0  0  0
    7.9911   -5.7215   25.9879 H   0  0  0  0  0  0  0  0  0  0  0  0
    9.1455   -6.2005   27.2641 H   0  0  0  0  0  0  0  0  0  0  0  0
    9.7281   -5.9014   25.5980 H   0  0  0  0  0  0  0  0  0  0  0  0
   11.7760   -5.1272   23.7380 H   0  0  0  0  0  0  0  0  0  0  0  0
   11.9398   -3.7140   21.7327 H   0  0  0  0  0  0  0  0  0  0  0  0
   14.9464   -7.5848   22.2199 H   0  0  0  0  0  0  0  0  0  0  0  0
   16.5087   -6.2239   20.6030 H   0  0  0  0  0  0  0  0  0  0  0  0
   15.3990   -7.0239   19.4907 H   0  0  0  0  0  0  0  0  0  0  0  0
   16.4148   -5.2571   18.2254 H   0  0  0  0  0  0  0  0  0  0  0  0
   16.2976   -4.1007   19.5399 H   0  0  0  0  0  0  0  0  0  0  0  0
   14.0060   -5.2745   18.1288 H   0  0  0  0  0  0  0  0  0  0  0  0
   12.7120   -3.6855   19.1904 H   0  0  0  0  0  0  0  0  0  0  0  0
   14.1252   -2.9594   19.9467 H   0  0  0  0  0  0  0  0  0  0  0  0
  1  2  1  0
  2  3  1  0
  3  4  1  0
  4  5  1  0
  5  6  2  0
  6  7  1  0
  7  8  2  0
  8  9  1  0
  9 10  1  0
  3 11  1  0
 11 12  2  0
 11 13  1  0
 13 14  2  0
 14 15  1  0
 15 16  2  0
 16 17  1  0
 17 18  2  0
 17 19  1  0
 19 20  1  0
 20 21  1  0
 21 22  1  0
  9  5  1  0
 18 13  1  0
 22 16  1  0
  1 23  1  0
  1 24  1  0
  1 25  1  0
  2 26  1  0
  2 27  1  0
  4 28  1  0
  4 29  1  0
  6 30  1  0
  8 31  1  0
 10 32  1  0
 10 33  1  0
 10 34  1  0
 14 35  1  0
 15 36  1  0
 18 37  1  0
 19 38  1  0
 19 39  1  0
 20 40  1  0
 20 41  1  0
 21 42  1  0
 22 43  1  0
 22 44  1  0
M  END
>  <Energy>  (574) 
122.02712015136295

>  <compound_id>  (574) 
46547

>  <target_id>  (574) 
1

>  <reference_id>  (574) 
116

>  <inspiration_ids>  (574) 
[116, 146]

>  <energy_score>  (574) 
60.602462958843546

>  <distance_score>  (574) 
8.574489938726021

>  <path>  (574) 
/opt/xchem-fragalysis-2/maxwin/BulkDock/SCRATCH/511023/C46547-P116/C46547-P116.minimised.mol

>  <scratch_subdir>  (574) 
/opt/xchem-fragalysis-2/maxwin/BulkDock/SCRATCH/511023/C46547-P116

>  <fragmenstein_runtime>  (574) 
13.860894918441772

>  <fragmenstein_outcome>  (574) 
too moved

>  <fragmenstein_mode>  (574) 
expansion

>  <fragmenstein_error>  (574) 


$$$$
C46547-P146
     RDKit          3D

 44 46  0  0  0  0  0  0  0  0999 V2000
    5.9831  -11.7628   25.1521 C   0  0  0  0  0  0  0  0  0  0  0  0
    4.3806  -11.9050   24.5004 C   0  0  0  0  0  0  0  0  0  0  0  0
    4.4292  -10.6906   24.2058 N   0  0  0  0  0  0  0  0  0  0  0  0
    2.6673  -11.3355   24.6028 C   0  0  0  0  0  0  0  0  0  0  0  0
    2.7219  -13.1503   25.7099 C   0  0  0  0  0  0  0  0  0  0  0  0
    1.5843  -14.1112   26.6594 C   0  0  0  0  0  0  0  0  0  0  0  0
    1.7710  -15.2184   27.5059 N   0  0  0  0  0  0  0  0  0  0  0  0
    2.8915  -14.8290   27.9330 C   0  0  0  0  0  0  0  0  0  0  0  0
    3.2870  -13.5729   27.3374 N   0  0  0  0  0  0  0  0  0  0  0  0
    3.6399  -12.7580   28.5421 C   0  0  0  0  0  0  0  0  0  0  0  0
    5.0686   -9.8513   22.8726 C   0  0  0  0  0  0  0  0  0  0  0  0
    5.4379  -10.6735   22.0855 O   0  0  0  0  0  0  0  0  0  0  0  0
    5.8193   -7.7226   22.1164 C   0  0  0  0  0  0  0  0  0  0  0  0
    7.1501   -7.6988   20.6183 C   0  0  0  0  0  0  0  0  0  0  0  0
    9.0823   -7.6935   19.8993 C   0  0  0  0  0  0  0  0  0  0  0  0
    9.8694   -5.9247   19.7496 C   0  0  0  0  0  0  0  0  0  0  0  0
    8.5398   -4.9415   20.7917 C   0  0  0  0  0  0  0  0  0  0  0  0
    7.1164   -6.1617   21.7742 C   0  0  0  0  0  0  0  0  0  0  0  0
   10.5893   -5.3950   20.9434 C   0  0  0  0  0  0  0  0  0  0  0  0
   12.1739   -5.0264   21.8018 C   0  0  0  0  0  0  0  0  0  0  0  0
   12.8737   -5.7575   20.7707 N   0  0  0  0  0  0  0  0  0  0  0  0
   11.9281   -5.4246   19.6183 C   0  0  0  0  0  0  0  0  0  0  0  0
    6.0982  -12.4038   26.0316 H   0  0  0  0  0  0  0  0  0  0  0  0
    6.7928  -11.8454   24.4219 H   0  0  0  0  0  0  0  0  0  0  0  0
    6.1854  -10.7478   25.5142 H   0  0  0  0  0  0  0  0  0  0  0  0
    4.1600  -11.9387   23.3732 H   0  0  0  0  0  0  0  0  0  0  0  0
    3.9832  -12.9624   24.3728 H   0  0  0  0  0  0  0  0  0  0  0  0
    2.3944  -10.4897   25.1678 H   0  0  0  0  0  0  0  0  0  0  0  0
    2.1740  -11.6377   23.6702 H   0  0  0  0  0  0  0  0  0  0  0  0
    0.5738  -13.6914   26.7214 H   0  0  0  0  0  0  0  0  0  0  0  0
    3.1691  -15.2308   28.8909 H   0  0  0  0  0  0  0  0  0  0  0  0
    3.4875  -13.3725   29.4269 H   0  0  0  0  0  0  0  0  0  0  0  0
    3.1457  -11.9829   29.1443 H   0  0  0  0  0  0  0  0  0  0  0  0
    4.6132  -12.4439   28.3713 H   0  0  0  0  0  0  0  0  0  0  0  0
    6.7371   -7.4940   19.6085 H   0  0  0  0  0  0  0  0  0  0  0  0
    9.8253   -8.4627   20.2218 H   0  0  0  0  0  0  0  0  0  0  0  0
    6.8592   -5.7882   20.5828 H   0  0  0  0  0  0  0  0  0  0  0  0
   11.0373   -4.3061   21.0110 H   0  0  0  0  0  0  0  0  0  0  0  0
   10.9381   -6.5231   21.0599 H   0  0  0  0  0  0  0  0  0  0  0  0
   12.4942   -3.9670   21.8222 H   0  0  0  0  0  0  0  0  0  0  0  0
   12.3658   -5.4341   22.8024 H   0  0  0  0  0  0  0  0  0  0  0  0
   13.7753   -5.3030   20.5975 H   0  0  0  0  0  0  0  0  0  0  0  0
   12.5137   -5.4476   18.6493 H   0  0  0  0  0  0  0  0  0  0  0  0
   12.2493   -4.3405   19.5969 H   0  0  0  0  0  0  0  0  0  0  0  0
  1  2  1  0
  2  3  1  0
  3  4  1  0
  4  5  1  0
  5  6  2  0
  6  7  1  0
  7  8  2  0
  8  9  1  0
  9 10  1  0
  3 11  1  0
 11 12  2  0
 11 13  1  0
 13 14  2  0
 14 15  1  0
 15 16  2  0
 16 17  1  0
 17 18  2  0
 17 19  1  0
 19 20  1  0
 20 21  1  0
 21 22  1  0
  9  5  1  0
 18 13  1  0
 22 16  1  0
  1 23  1  0
  1 24  1  0
  1 25  1  0
  2 26  1  0
  2 27  1  0
  4 28  1  0
  4 29  1  0
  6 30  1  0
  8 31  1  0
 10 32  1  0
 10 33  1  0
 10 34  1  0
 14 35  1  0
 15 36  1  0
 18 37  1  0
 19 38  1  0
 19 39  1  0
 20 40  1  0
 20 41  1  0
 21 42  1  0
 22 43  1  0
 22 44  1  0
M  END
>  <Energy>  (575) 
2646.0438694242889

>  <compound_id>  (575) 
46547

>  <target_id>  (575) 
1

>  <reference_id>  (575) 
146

>  <inspiration_ids>  (575) 
[116, 146]

>  <energy_score>  (575) 
2584.6192122317516

>  <distance_score>  (575) 
7.544946705966541

>  <path>  (575) 
/opt/xchem-fragalysis-2/maxwin/BulkDock/SCRATCH/511023/C46547-P146/C46547-P146.minimised.mol

>  <scratch_subdir>  (575) 
/opt/xchem-fragalysis-2/maxwin/BulkDock/SCRATCH/511023/C46547-P146

>  <fragmenstein_runtime>  (575) 
32.134997844696045

>  <fragmenstein_outcome>  (575) 
too moved

>  <fragmenstein_mode>  (575) 
expansion

>  <fragmenstein_error>  (575) 


$$$$
C46551-P116
     RDKit          3D

 41 43  0  0  0  0  0  0  0  0999 V2000
   10.6413   -6.1669   26.5197 C   0  0  0  0  0  0  0  0  0  0  0  0
   11.2871   -7.7546   25.6278 C   0  0  0  0  0  0  0  0  0  0  0  0
   11.5052   -6.9794   24.6630 N   0  0  0  0  0  0  0  0  0  0  0  0
   10.7013   -8.1806   26.0779 C   0  0  0  0  0  0  0  0  0  0  0  0
    8.9853   -8.3466   25.9534 C   0  0  0  0  0  0  0  0  0  0  0  0
    8.1927   -7.7214   25.1130 N   0  0  0  0  0  0  0  0  0  0  0  0
    6.9104   -8.0159   25.5258 C   0  0  0  0  0  0  0  0  0  0  0  0
    6.9249   -8.8848   26.5914 C   0  0  0  0  0  0  0  0  0  0  0  0
    8.2488   -9.1170   26.8367 N   0  0  0  0  0  0  0  0  0  0  0  0
    8.7639   -9.9772   27.8725 C   0  0  0  0  0  0  0  0  0  0  0  0
   12.4745   -5.7398   24.6963 C   0  0  0  0  0  0  0  0  0  0  0  0
   13.0720   -5.2399   25.5735 O   0  0  0  0  0  0  0  0  0  0  0  0
   12.7383   -5.1761   23.3341 C   0  0  0  0  0  0  0  0  0  0  0  0
   13.2424   -3.9042   23.0479 C   0  0  0  0  0  0  0  0  0  0  0  0
   13.6763   -3.7400   21.6918 C   0  0  0  0  0  0  0  0  0  0  0  0
   13.4491   -4.8859   20.9654 C   0  0  0  0  0  0  0  0  0  0  0  0
   12.6856   -6.1062   21.8951 S   0  0  0  0  0  0  0  0  0  0  0  0
   13.8536   -5.0519   19.5283 C   0  0  0  0  0  0  0  0  0  0  0  0
   14.9066   -4.0868   19.1293 N   0  0  0  0  0  0  0  0  0  0  0  0
   14.5469   -2.7257   19.5340 C   0  0  0  0  0  0  0  0  0  0  0  0
   14.4023   -2.5765   21.0712 C   0  0  0  0  0  0  0  0  0  0  0  0
   10.2813   -5.4156   25.8030 H   0  0  0  0  0  0  0  0  0  0  0  0
   11.4679   -5.7858   27.1322 H   0  0  0  0  0  0  0  0  0  0  0  0
    9.8189   -6.3764   27.2214 H   0  0  0  0  0  0  0  0  0  0  0  0
   11.1426   -8.4212   24.4827 H   0  0  0  0  0  0  0  0  0  0  0  0
   12.4589   -7.8563   25.9651 H   0  0  0  0  0  0  0  0  0  0  0  0
   10.9095   -9.4340   25.9377 H   0  0  0  0  0  0  0  0  0  0  0  0
   10.8954   -8.0964   27.3150 H   0  0  0  0  0  0  0  0  0  0  0  0
    6.0490   -7.5912   25.0213 H   0  0  0  0  0  0  0  0  0  0  0  0
    6.1271   -9.3364   27.1632 H   0  0  0  0  0  0  0  0  0  0  0  0
    7.9402  -10.5310   28.3307 H   0  0  0  0  0  0  0  0  0  0  0  0
    9.2564   -9.3569   28.6249 H   0  0  0  0  0  0  0  0  0  0  0  0
    9.4707  -10.6798   27.4251 H   0  0  0  0  0  0  0  0  0  0  0  0
   13.3752   -3.1528   23.8184 H   0  0  0  0  0  0  0  0  0  0  0  0
   12.9837   -4.9180   18.8807 H   0  0  0  0  0  0  0  0  0  0  0  0
   14.2744   -6.0464   19.3865 H   0  0  0  0  0  0  0  0  0  0  0  0
   14.9942   -4.1446   18.1168 H   0  0  0  0  0  0  0  0  0  0  0  0
   15.3183   -2.0296   19.1861 H   0  0  0  0  0  0  0  0  0  0  0  0
   13.6235   -2.4455   19.0205 H   0  0  0  0  0  0  0  0  0  0  0  0
   15.4039   -2.5284   21.5177 H   0  0  0  0  0  0  0  0  0  0  0  0
   13.8948   -1.6364   21.3104 H   0  0  0  0  0  0  0  0  0  0  0  0
  1  2  1  0
  2  3  1  0
  3  4  1  0
  4  5  1  0
  5  6  2  0
  6  7  1  0
  7  8  2  0
  8  9  1  0
  9 10  1  0
  3 11  1  0
 11 12  2  0
 11 13  1  0
 13 14  2  0
 14 15  1  0
 15 16  2  0
 16 17  1  0
 16 18  1  0
 18 19  1  0
 19 20  1  0
 20 21  1  0
  9  5  1  0
 17 13  1  0
 21 15  1  0
  1 22  1  0
  1 23  1  0
  1 24  1  0
  2 25  1  0
  2 26  1  0
  4 27  1  0
  4 28  1  0
  7 29  1  0
  8 30  1  0
 10 31  1  0
 10 32  1  0
 10 33  1  0
 14 34  1  0
 18 35  1  0
 18 36  1  0
 19 37  1  0
 20 38  1  0
 20 39  1  0
 21 40  1  0
 21 41  1  0
M  END
>  <Energy>  (576) 
901.24170341037109

>  <compound_id>  (576) 
46551

>  <target_id>  (576) 
1

>  <reference_id>  (576) 
116

>  <inspiration_ids>  (576) 
[116, 146]

>  <energy_score>  (576) 
810.2841740625383

>  <distance_score>  (576) 
8.178671320433056

>  <path>  (576) 
/opt/xchem-fragalysis-2/maxwin/BulkDock/SCRATCH/511023/C46551-P116/C46551-P116.minimised.mol

>  <scratch_subdir>  (576) 
/opt/xchem-fragalysis-2/maxwin/BulkDock/SCRATCH/511023/C46551-P116

>  <fragmenstein_runtime>  (576) 
16.26310658454895

>  <fragmenstein_outcome>  (576) 
too moved

>  <fragmenstein_mode>  (576) 
expansion

>  <fragmenstein_error>  (576) 


$$$$
C46551-P146
     RDKit          3D

 41 43  0  0  0  0  0  0  0  0999 V2000
   13.8112   -7.2424   25.7333 C   0  0  0  0  0  0  0  0  0  0  0  0
   12.0585   -7.0111   25.2314 C   0  0  0  0  0  0  0  0  0  0  0  0
   12.4686   -6.1789   24.2670 N   0  0  0  0  0  0  0  0  0  0  0  0
   11.5873   -6.8960   25.8506 C   0  0  0  0  0  0  0  0  0  0  0  0
    9.9595   -7.6296   25.8559 C   0  0  0  0  0  0  0  0  0  0  0  0
    9.4890   -8.5265   25.0042 N   0  0  0  0  0  0  0  0  0  0  0  0
    8.2484   -8.8901   25.4929 C   0  0  0  0  0  0  0  0  0  0  0  0
    7.9611   -8.2132   26.6524 C   0  0  0  0  0  0  0  0  0  0  0  0
    9.0518   -7.4190   26.8797 N   0  0  0  0  0  0  0  0  0  0  0  0
    9.2123   -6.5315   28.0050 C   0  0  0  0  0  0  0  0  0  0  0  0
   13.0170   -4.6658   24.2013 C   0  0  0  0  0  0  0  0  0  0  0  0
   13.1072   -3.8357   24.9977 O   0  0  0  0  0  0  0  0  0  0  0  0
   13.5212   -4.3322   22.8185 C   0  0  0  0  0  0  0  0  0  0  0  0
   14.2639   -3.2113   22.4305 C   0  0  0  0  0  0  0  0  0  0  0  0
   14.5411   -3.1464   21.0185 C   0  0  0  0  0  0  0  0  0  0  0  0
   13.9938   -4.2243   20.3617 C   0  0  0  0  0  0  0  0  0  0  0  0
   13.1971   -5.2690   21.4313 S   0  0  0  0  0  0  0  0  0  0  0  0
   14.0930   -4.4763   18.8837 C   0  0  0  0  0  0  0  0  0  0  0  0
   14.4385   -3.2459   18.1360 N   0  0  0  0  0  0  0  0  0  0  0  0
   15.5571   -2.5386   18.7908 C   0  0  0  0  0  0  0  0  0  0  0  0
   15.2600   -2.0807   20.2438 C   0  0  0  0  0  0  0  0  0  0  0  0
   14.1761   -6.3080   26.1782 H   0  0  0  0  0  0  0  0  0  0  0  0
   14.4125   -7.4966   24.8510 H   0  0  0  0  0  0  0  0  0  0  0  0
   13.8692   -8.0462   26.4787 H   0  0  0  0  0  0  0  0  0  0  0  0
   12.3332   -8.2777   25.0615 H   0  0  0  0  0  0  0  0  0  0  0  0
   11.6167   -7.5341   24.1766 H   0  0  0  0  0  0  0  0  0  0  0  0
   12.0324   -6.9111   27.0075 H   0  0  0  0  0  0  0  0  0  0  0  0
   11.0725   -5.8046   26.1376 H   0  0  0  0  0  0  0  0  0  0  0  0
    7.6315   -9.6174   24.9793 H   0  0  0  0  0  0  0  0  0  0  0  0
    7.1016   -8.2286   27.3051 H   0  0  0  0  0  0  0  0  0  0  0  0
    8.3666   -6.6500   28.6875 H   0  0  0  0  0  0  0  0  0  0  0  0
    9.2446   -5.5042   27.6344 H   0  0  0  0  0  0  0  0  0  0  0  0
   10.1384   -6.7878   28.5246 H   0  0  0  0  0  0  0  0  0  0  0  0
   14.5612   -2.4506   23.1436 H   0  0  0  0  0  0  0  0  0  0  0  0
   13.1449   -4.8472   18.4866 H   0  0  0  0  0  0  0  0  0  0  0  0
   14.8581   -5.2371   18.6904 H   0  0  0  0  0  0  0  0  0  0  0  0
   13.6104   -2.6595   18.1644 H   0  0  0  0  0  0  0  0  0  0  0  0
   16.4390   -3.1923   18.7851 H   0  0  0  0  0  0  0  0  0  0  0  0
   15.8211   -1.6611   18.1898 H   0  0  0  0  0  0  0  0  0  0  0  0
   16.1987   -1.8186   20.7442 H   0  0  0  0  0  0  0  0  0  0  0  0
   14.6329   -1.1818   20.2219 H   0  0  0  0  0  0  0  0  0  0  0  0
  1  2  1  0
  2  3  1  0
  3  4  1  0
  4  5  1  0
  5  6  2  0
  6  7  1  0
  7  8  2  0
  8  9  1  0
  9 10  1  0
  3 11  1  0
 11 12  2  0
 11 13  1  0
 13 14  2  0
 14 15  1  0
 15 16  2  0
 16 17  1  0
 16 18  1  0
 18 19  1  0
 19 20  1  0
 20 21  1  0
  9  5  1  0
 17 13  1  0
 21 15  1  0
  1 22  1  0
  1 23  1  0
  1 24  1  0
  2 25  1  0
  2 26  1  0
  4 27  1  0
  4 28  1  0
  7 29  1  0
  8 30  1  0
 10 31  1  0
 10 32  1  0
 10 33  1  0
 14 34  1  0
 18 35  1  0
 18 36  1  0
 19 37  1  0
 20 38  1  0
 20 39  1  0
 21 40  1  0
 21 41  1  0
M  END
>  <Energy>  (577) 
798.89260411980104

>  <compound_id>  (577) 
46551

>  <target_id>  (577) 
1

>  <reference_id>  (577) 
146

>  <inspiration_ids>  (577) 
[116, 146]

>  <energy_score>  (577) 
707.9350747719792

>  <distance_score>  (577) 
8.279009352609062

>  <path>  (577) 
/opt/xchem-fragalysis-2/maxwin/BulkDock/SCRATCH/511023/C46551-P146/C46551-P146.minimised.mol

>  <scratch_subdir>  (577) 
/opt/xchem-fragalysis-2/maxwin/BulkDock/SCRATCH/511023/C46551-P146

>  <fragmenstein_runtime>  (577) 
18.130470037460327

>  <fragmenstein_outcome>  (577) 
too moved

>  <fragmenstein_mode>  (577) 
expansion

>  <fragmenstein_error>  (577) 


$$$$
C46552-P116
     RDKit          3D

 44 46  0  0  0  0  0  0  0  0999 V2000
   11.4575   -9.8217   26.6948 C   0  0  0  0  0  0  0  0  0  0  0  0
   10.4894   -8.8003   26.1001 C   0  0  0  0  0  0  0  0  0  0  0  0
   11.1046   -8.1287   24.9581 N   0  0  0  0  0  0  0  0  0  0  0  0
   11.9292   -6.9474   24.8900 C   0  0  0  0  0  0  0  0  0  0  0  0
   12.2536   -6.1713   25.7422 O   0  0  0  0  0  0  0  0  0  0  0  0
   12.5796   -6.6443   23.5616 C   0  0  0  0  0  0  0  0  0  0  0  0
   13.3849   -7.5580   22.8903 C   0  0  0  0  0  0  0  0  0  0  0  0
   14.1443   -7.1420   21.7771 C   0  0  0  0  0  0  0  0  0  0  0  0
   14.0945   -5.8241   21.2729 C   0  0  0  0  0  0  0  0  0  0  0  0
   13.3328   -4.8898   21.9797 C   0  0  0  0  0  0  0  0  0  0  0  0
   12.5789   -5.3154   23.1028 C   0  0  0  0  0  0  0  0  0  0  0  0
   13.2374   -3.4310   21.6141 C   0  0  0  0  0  0  0  0  0  0  0  0
   14.4146   -2.7966   20.8654 C   0  0  0  0  0  0  0  0  0  0  0  0
   14.4596   -3.0528   19.4200 N   0  0  0  0  0  0  0  0  0  0  0  0
   14.2431   -4.4656   19.0763 C   0  0  0  0  0  0  0  0  0  0  0  0
   14.9015   -5.4797   20.0311 C   0  0  0  0  0  0  0  0  0  0  0  0
    9.0796   -9.3125   25.9200 C   0  0  0  0  0  0  0  0  0  0  0  0
    7.8992   -8.7069   26.3404 C   0  0  0  0  0  0  0  0  0  0  0  0
    6.8406   -9.5713   26.3116 N   0  0  0  0  0  0  0  0  0  0  0  0
    7.3189  -10.6798   25.8030 C   0  0  0  0  0  0  0  0  0  0  0  0
    8.6582  -10.5731   25.5364 N   0  0  0  0  0  0  0  0  0  0  0  0
    9.4442  -11.6564   24.9986 C   0  0  0  0  0  0  0  0  0  0  0  0
   12.3712   -9.3244   27.0410 H   0  0  0  0  0  0  0  0  0  0  0  0
   11.0163  -10.3445   27.5502 H   0  0  0  0  0  0  0  0  0  0  0  0
   11.7715  -10.5662   25.9570 H   0  0  0  0  0  0  0  0  0  0  0  0
   10.4168   -8.0099   26.8617 H   0  0  0  0  0  0  0  0  0  0  0  0
   11.1124   -8.5881   24.0583 H   0  0  0  0  0  0  0  0  0  0  0  0
   13.4947   -8.5738   23.2586 H   0  0  0  0  0  0  0  0  0  0  0  0
   14.7880   -7.8744   21.2888 H   0  0  0  0  0  0  0  0  0  0  0  0
   12.0089   -4.5735   23.6663 H   0  0  0  0  0  0  0  0  0  0  0  0
   13.1248   -2.8597   22.5448 H   0  0  0  0  0  0  0  0  0  0  0  0
   12.3102   -3.3186   21.0583 H   0  0  0  0  0  0  0  0  0  0  0  0
   15.3643   -3.0833   21.3337 H   0  0  0  0  0  0  0  0  0  0  0  0
   14.3411   -1.7082   20.9799 H   0  0  0  0  0  0  0  0  0  0  0  0
   15.3772   -2.7692   19.0772 H   0  0  0  0  0  0  0  0  0  0  0  0
   14.6594   -4.6076   18.0723 H   0  0  0  0  0  0  0  0  0  0  0  0
   13.1679   -4.6580   18.9889 H   0  0  0  0  0  0  0  0  0  0  0  0
   15.8996   -5.1409   20.3361 H   0  0  0  0  0  0  0  0  0  0  0  0
   15.0691   -6.4037   19.4682 H   0  0  0  0  0  0  0  0  0  0  0  0
    7.7820   -7.7042   26.7347 H   0  0  0  0  0  0  0  0  0  0  0  0
    6.7506  -11.5811   25.6103 H   0  0  0  0  0  0  0  0  0  0  0  0
    8.7991  -12.3055   24.4003 H   0  0  0  0  0  0  0  0  0  0  0  0
    9.8692  -12.2197   25.8326 H   0  0  0  0  0  0  0  0  0  0  0  0
   10.2323  -11.2495   24.3621 H   0  0  0  0  0  0  0  0  0  0  0  0
  1  2  1  0
  2  3  1  0
  3  4  1  0
  4  5  2  0
  4  6  1  0
  6  7  2  0
  7  8  1  0
  8  9  2  0
  9 10  1  0
 10 11  2  0
 10 12  1  0
 12 13  1  0
 13 14  1  0
 14 15  1  0
 15 16  1  0
  2 17  1  0
 17 18  2  0
 18 19  1  0
 19 20  2  0
 20 21  1  0
 21 22  1  0
 11  6  1  0
 21 17  1  0
 16  9  1  0
  1 23  1  0
  1 24  1  0
  1 25  1  0
  2 26  1  0
  3 27  1  0
  7 28  1  0
  8 29  1  0
 11 30  1  0
 12 31  1  0
 12 32  1  0
 13 33  1  0
 13 34  1  0
 14 35  1  0
 15 36  1  0
 15 37  1  0
 16 38  1  0
 16 39  1  0
 18 40  1  0
 20 41  1  0
 22 42  1  0
 22 43  1  0
 22 44  1  0
M  END
>  <Energy>  (578) 
53.010033044726512

>  <compound_id>  (578) 
46552

>  <target_id>  (578) 
1

>  <reference_id>  (578) 
116

>  <inspiration_ids>  (578) 
[116, 146]

>  <energy_score>  (578) 
-17.474848759636586

>  <distance_score>  (578) 
8.354031143438888

>  <path>  (578) 
/opt/xchem-fragalysis-2/maxwin/BulkDock/SCRATCH/511023/C46552-P116/C46552-P116.minimised.mol

>  <scratch_subdir>  (578) 
/opt/xchem-fragalysis-2/maxwin/BulkDock/SCRATCH/511023/C46552-P116

>  <fragmenstein_runtime>  (578) 
12.94383978843689

>  <fragmenstein_outcome>  (578) 
too moved

>  <fragmenstein_mode>  (578) 
expansion

>  <fragmenstein_error>  (578) 


$$$$
C46552-P146
     RDKit          3D

 44 46  0  0  0  0  0  0  0  0999 V2000
    4.0731  -10.4251   24.1573 C   0  0  0  0  0  0  0  0  0  0  0  0
    3.2130   -9.5872   25.0568 C   0  0  0  0  0  0  0  0  0  0  0  0
    4.1930   -8.6431   25.6991 N   0  0  0  0  0  0  0  0  0  0  0  0
    5.0411   -7.6273   25.1229 C   0  0  0  0  0  0  0  0  0  0  0  0
    5.1183   -7.2243   24.0081 O   0  0  0  0  0  0  0  0  0  0  0  0
    6.1036   -6.9993   25.9656 C   0  0  0  0  0  0  0  0  0  0  0  0
    6.0913   -5.6478   26.2760 C   0  0  0  0  0  0  0  0  0  0  0  0
    7.2908   -4.9979   26.6282 C   0  0  0  0  0  0  0  0  0  0  0  0
    8.5559   -5.6427   26.6111 C   0  0  0  0  0  0  0  0  0  0  0  0
    8.5995   -6.9859   26.2185 C   0  0  0  0  0  0  0  0  0  0  0  0
    7.3720   -7.6392   25.9028 C   0  0  0  0  0  0  0  0  0  0  0  0
    9.8800   -7.7886   26.2174 C   0  0  0  0  0  0  0  0  0  0  0  0
   11.1061   -7.2822   25.4345 C   0  0  0  0  0  0  0  0  0  0  0  0
   11.4318   -5.8546   25.4521 N   0  0  0  0  0  0  0  0  0  0  0  0
   11.1978   -5.2834   26.7717 C   0  0  0  0  0  0  0  0  0  0  0  0
    9.7576   -4.7951   27.0119 C   0  0  0  0  0  0  0  0  0  0  0  0
    2.1750  -10.6137   25.9603 C   0  0  0  0  0  0  0  0  0  0  0  0
    0.9644  -10.0723   27.6070 C   0  0  0  0  0  0  0  0  0  0  0  0
   -0.6655  -11.1766   27.2906 N   0  0  0  0  0  0  0  0  0  0  0  0
   -0.1779  -12.7364   26.3274 C   0  0  0  0  0  0  0  0  0  0  0  0
    1.2882  -12.1351   25.1318 N   0  0  0  0  0  0  0  0  0  0  0  0
    1.4998  -12.5739   23.7643 C   0  0  0  0  0  0  0  0  0  0  0  0
    4.9620  -10.8841   24.5964 H   0  0  0  0  0  0  0  0  0  0  0  0
    3.5469  -11.1182   23.5149 H   0  0  0  0  0  0  0  0  0  0  0  0
    4.5100   -9.6663   23.5718 H   0  0  0  0  0  0  0  0  0  0  0  0
    2.6337   -8.9468   24.4127 H   0  0  0  0  0  0  0  0  0  0  0  0
    4.3362   -8.6657   26.6760 H   0  0  0  0  0  0  0  0  0  0  0  0
    5.1781   -5.0703   26.1686 H   0  0  0  0  0  0  0  0  0  0  0  0
    7.2464   -3.9333   26.8577 H   0  0  0  0  0  0  0  0  0  0  0  0
    7.3993   -8.6609   25.5186 H   0  0  0  0  0  0  0  0  0  0  0  0
    9.6697   -8.8049   25.8578 H   0  0  0  0  0  0  0  0  0  0  0  0
   10.1642   -7.9188   27.2710 H   0  0  0  0  0  0  0  0  0  0  0  0
   11.0251   -7.6080   24.3935 H   0  0  0  0  0  0  0  0  0  0  0  0
   11.9816   -7.8259   25.8140 H   0  0  0  0  0  0  0  0  0  0  0  0
   10.8303   -5.3321   24.8135 H   0  0  0  0  0  0  0  0  0  0  0  0
   11.8627   -4.4183   26.8859 H   0  0  0  0  0  0  0  0  0  0  0  0
   11.5026   -5.9799   27.5633 H   0  0  0  0  0  0  0  0  0  0  0  0
    9.6658   -3.8123   26.5339 H   0  0  0  0  0  0  0  0  0  0  0  0
    9.6599   -4.6052   28.0898 H   0  0  0  0  0  0  0  0  0  0  0  0
    0.8395   -9.1868   28.2426 H   0  0  0  0  0  0  0  0  0  0  0  0
   -1.0981  -13.1633   25.8576 H   0  0  0  0  0  0  0  0  0  0  0  0
    0.8367  -13.4040   23.5310 H   0  0  0  0  0  0  0  0  0  0  0  0
    1.3026  -11.7981   23.0463 H   0  0  0  0  0  0  0  0  0  0  0  0
    2.5412  -12.8704   23.6516 H   0  0  0  0  0  0  0  0  0  0  0  0
  1  2  1  0
  2  3  1  0
  3  4  1  0
  4  5  2  0
  4  6  1  0
  6  7  2  0
  7  8  1  0
  8  9  2  0
  9 10  1  0
 10 11  2  0
 10 12  1  0
 12 13  1  0
 13 14  1  0
 14 15  1  0
 15 16  1  0
  2 17  1  0
 17 18  2  0
 18 19  1  0
 19 20  2  0
 20 21  1  0
 21 22  1  0
 11  6  1  0
 21 17  1  0
 16  9  1  0
  1 23  1  0
  1 24  1  0
  1 25  1  0
  2 26  1  0
  3 27  1  0
  7 28  1  0
  8 29  1  0
 11 30  1  0
 12 31  1  0
 12 32  1  0
 13 33  1  0
 13 34  1  0
 14 35  1  0
 15 36  1  0
 15 37  1  0
 16 38  1  0
 16 39  1  0
 18 40  1  0
 20 41  1  0
 22 42  1  0
 22 43  1  0
 22 44  1  0
M  END
>  <Energy>  (579) 
741.55879803557787

>  <compound_id>  (579) 
46552

>  <target_id>  (579) 
1

>  <reference_id>  (579) 
146

>  <inspiration_ids>  (579) 
[116, 146]

>  <energy_score>  (579) 
671.0739162311966

>  <distance_score>  (579) 
10.662799715175087

>  <path>  (579) 
/opt/xchem-fragalysis-2/maxwin/BulkDock/SCRATCH/511023/C46552-P146/C46552-P146.minimised.mol

>  <scratch_subdir>  (579) 
/opt/xchem-fragalysis-2/maxwin/BulkDock/SCRATCH/511023/C46552-P146

>  <fragmenstein_runtime>  (579) 
39.31232261657715

>  <fragmenstein_outcome>  (579) 
too moved

>  <fragmenstein_mode>  (579) 
expansion

>  <fragmenstein_error>  (579) 


$$$$
C46553-P116
     RDKit          3D

 44 46  0  0  0  0  0  0  0  0999 V2000
   10.7170   -5.8484   27.2933 C   0  0  0  0  0  0  0  0  0  0  0  0
   10.9170   -6.9860   26.2876 C   0  0  0  0  0  0  0  0  0  0  0  0
   11.5361   -6.4948   25.0523 N   0  0  0  0  0  0  0  0  0  0  0  0
   12.6575   -5.5889   24.8413 C   0  0  0  0  0  0  0  0  0  0  0  0
   13.4070   -5.0785   25.6256 O   0  0  0  0  0  0  0  0  0  0  0  0
   12.9177   -5.1653   23.3805 C   0  0  0  0  0  0  0  0  0  0  0  0
   12.4742   -5.8942   22.2896 C   0  0  0  0  0  0  0  0  0  0  0  0
   12.7381   -5.4397   20.9900 C   0  0  0  0  0  0  0  0  0  0  0  0
   13.5098   -4.3134   20.6736 C   0  0  0  0  0  0  0  0  0  0  0  0
   14.0060   -3.5801   21.7515 C   0  0  0  0  0  0  0  0  0  0  0  0
   13.6792   -4.0010   23.0844 C   0  0  0  0  0  0  0  0  0  0  0  0
   14.8524   -2.3396   21.5527 C   0  0  0  0  0  0  0  0  0  0  0  0
   15.8850   -2.4684   20.4299 C   0  0  0  0  0  0  0  0  0  0  0  0
   15.3272   -2.1866   19.0386 C   0  0  0  0  0  0  0  0  0  0  0  0
   13.9880   -2.6993   18.7722 N   0  0  0  0  0  0  0  0  0  0  0  0
   13.8129   -4.0880   19.1984 C   0  0  0  0  0  0  0  0  0  0  0  0
    9.5957   -7.7129   26.0288 C   0  0  0  0  0  0  0  0  0  0  0  0
    8.2808   -7.2591   26.0338 C   0  0  0  0  0  0  0  0  0  0  0  0
    7.3837   -8.2845   25.8803 N   0  0  0  0  0  0  0  0  0  0  0  0
    8.1085   -9.3719   25.7999 C   0  0  0  0  0  0  0  0  0  0  0  0
    9.4440   -9.0832   25.8900 N   0  0  0  0  0  0  0  0  0  0  0  0
   10.5020  -10.0640   25.8575 C   0  0  0  0  0  0  0  0  0  0  0  0
   10.1085   -5.0406   26.8704 H   0  0  0  0  0  0  0  0  0  0  0  0
   10.2229   -6.2065   28.2034 H   0  0  0  0  0  0  0  0  0  0  0  0
   11.6761   -5.4124   27.5912 H   0  0  0  0  0  0  0  0  0  0  0  0
   11.6373   -7.6875   26.7240 H   0  0  0  0  0  0  0  0  0  0  0  0
   11.0808   -6.6587   24.1803 H   0  0  0  0  0  0  0  0  0  0  0  0
   11.9346   -6.8272   22.3936 H   0  0  0  0  0  0  0  0  0  0  0  0
   12.3178   -5.9883   20.1707 H   0  0  0  0  0  0  0  0  0  0  0  0
   14.0461   -3.4045   23.9213 H   0  0  0  0  0  0  0  0  0  0  0  0
   14.1990   -1.4733   21.3949 H   0  0  0  0  0  0  0  0  0  0  0  0
   15.4060   -2.1503   22.4814 H   0  0  0  0  0  0  0  0  0  0  0  0
   16.3497   -3.4626   20.4562 H   0  0  0  0  0  0  0  0  0  0  0  0
   16.6933   -1.7491   20.6137 H   0  0  0  0  0  0  0  0  0  0  0  0
   16.0287   -2.5797   18.2921 H   0  0  0  0  0  0  0  0  0  0  0  0
   15.3005   -1.1016   18.8856 H   0  0  0  0  0  0  0  0  0  0  0  0
   13.8290   -2.6622   17.7659 H   0  0  0  0  0  0  0  0  0  0  0  0
   12.9634   -4.4689   18.6190 H   0  0  0  0  0  0  0  0  0  0  0  0
   14.6760   -4.7011   18.9093 H   0  0  0  0  0  0  0  0  0  0  0  0
    7.9329   -6.2388   26.1573 H   0  0  0  0  0  0  0  0  0  0  0  0
    7.7220  -10.3763   25.6772 H   0  0  0  0  0  0  0  0  0  0  0  0
   10.0916  -11.0353   25.5694 H   0  0  0  0  0  0  0  0  0  0  0  0
   10.9443  -10.1261   26.8547 H   0  0  0  0  0  0  0  0  0  0  0  0
   11.2467   -9.7497   25.1218 H   0  0  0  0  0  0  0  0  0  0  0  0
  1  2  1  0
  2  3  1  0
  3  4  1  0
  4  5  2  0
  4  6  1  0
  6  7  2  0
  7  8  1  0
  8  9  2  0
  9 10  1  0
 10 11  2  0
 10 12  1  0
 12 13  1  0
 13 14  1  0
 14 15  1  0
 15 16  1  0
  2 17  1  0
 17 18  2  0
 18 19  1  0
 19 20  2  0
 20 21  1  0
 21 22  1  0
 11  6  1  0
 21 17  1  0
 16  9  1  0
  1 23  1  0
  1 24  1  0
  1 25  1  0
  2 26  1  0
  3 27  1  0
  7 28  1  0
  8 29  1  0
 11 30  1  0
 12 31  1  0
 12 32  1  0
 13 33  1  0
 13 34  1  0
 14 35  1  0
 14 36  1  0
 15 37  1  0
 16 38  1  0
 16 39  1  0
 18 40  1  0
 20 41  1  0
 22 42  1  0
 22 43  1  0
 22 44  1  0
M  END
>  <Energy>  (580) 
21.949067542495623

>  <compound_id>  (580) 
46553

>  <target_id>  (580) 
1

>  <reference_id>  (580) 
116

>  <inspiration_ids>  (580) 
[116, 146]

>  <energy_score>  (580) 
-21.498658974715568

>  <distance_score>  (580) 
8.502855344696377

>  <path>  (580) 
/opt/xchem-fragalysis-2/maxwin/BulkDock/SCRATCH/511023/C46553-P116/C46553-P116.minimised.mol

>  <scratch_subdir>  (580) 
/opt/xchem-fragalysis-2/maxwin/BulkDock/SCRATCH/511023/C46553-P116

>  <fragmenstein_runtime>  (580) 
17.030539512634277

>  <fragmenstein_outcome>  (580) 
too moved

>  <fragmenstein_mode>  (580) 
expansion

>  <fragmenstein_error>  (580) 


$$$$
C46553-P146
     RDKit          3D

 44 46  0  0  0  0  0  0  0  0999 V2000
    5.1457   -7.1823   24.8868 C   0  0  0  0  0  0  0  0  0  0  0  0
    6.6514   -6.9911   24.7505 C   0  0  0  0  0  0  0  0  0  0  0  0
    7.2259   -6.6345   23.4410 N   0  0  0  0  0  0  0  0  0  0  0  0
    7.3844   -5.2451   22.7182 C   0  0  0  0  0  0  0  0  0  0  0  0
    6.9600   -4.2302   23.1235 O   0  0  0  0  0  0  0  0  0  0  0  0
    8.4611   -4.9115   21.0903 C   0  0  0  0  0  0  0  0  0  0  0  0
    8.6357   -4.6279   19.9471 C   0  0  0  0  0  0  0  0  0  0  0  0
    9.9628   -5.6464   19.2233 C   0  0  0  0  0  0  0  0  0  0  0  0
   11.7634   -5.4413   19.7487 C   0  0  0  0  0  0  0  0  0  0  0  0
   11.8515   -5.2083   20.9977 C   0  0  0  0  0  0  0  0  0  0  0  0
   10.4274   -5.4514   20.9763 C   0  0  0  0  0  0  0  0  0  0  0  0
   12.7875   -4.3415   21.7043 C   0  0  0  0  0  0  0  0  0  0  0  0
   14.2608   -4.6677   21.4590 C   0  0  0  0  0  0  0  0  0  0  0  0
   14.7722   -4.2310   20.0898 C   0  0  0  0  0  0  0  0  0  0  0  0
   14.2157   -4.9933   18.9778 N   0  0  0  0  0  0  0  0  0  0  0  0
   12.7996   -4.7154   18.7284 C   0  0  0  0  0  0  0  0  0  0  0  0
    7.3695   -8.0695   25.5296 C   0  0  0  0  0  0  0  0  0  0  0  0
    7.2931   -9.4550   25.5151 C   0  0  0  0  0  0  0  0  0  0  0  0
    7.9117  -10.0150   26.6026 N   0  0  0  0  0  0  0  0  0  0  0  0
    8.3823   -9.0008   27.2810 C   0  0  0  0  0  0  0  0  0  0  0  0
    8.1130   -7.8137   26.6628 N   0  0  0  0  0  0  0  0  0  0  0  0
    8.5468   -6.5222   27.1428 C   0  0  0  0  0  0  0  0  0  0  0  0
    4.7104   -7.7811   24.0894 H   0  0  0  0  0  0  0  0  0  0  0  0
    4.6552   -6.2106   24.9289 H   0  0  0  0  0  0  0  0  0  0  0  0
    4.8809   -7.6678   25.8344 H   0  0  0  0  0  0  0  0  0  0  0  0
    6.8184   -6.0585   25.3051 H   0  0  0  0  0  0  0  0  0  0  0  0
    7.5954   -7.3385   22.8557 H   0  0  0  0  0  0  0  0  0  0  0  0
    8.9425   -3.6627   20.2007 H   0  0  0  0  0  0  0  0  0  0  0  0
    9.6161   -6.6362   19.4080 H   0  0  0  0  0  0  0  0  0  0  0  0
   10.6061   -6.6001   20.9630 H   0  0  0  0  0  0  0  0  0  0  0  0
   12.6421   -3.3106   21.4220 H   0  0  0  0  0  0  0  0  0  0  0  0
   12.5922   -4.4216   22.7797 H   0  0  0  0  0  0  0  0  0  0  0  0
   14.8517   -4.1335   22.2144 H   0  0  0  0  0  0  0  0  0  0  0  0
   14.4589   -5.7339   21.6172 H   0  0  0  0  0  0  0  0  0  0  0  0
   15.8581   -4.3845   20.0793 H   0  0  0  0  0  0  0  0  0  0  0  0
   14.6173   -3.1553   19.9412 H   0  0  0  0  0  0  0  0  0  0  0  0
   14.7416   -4.7571   18.1363 H   0  0  0  0  0  0  0  0  0  0  0  0
   12.6606   -3.6345   18.7049 H   0  0  0  0  0  0  0  0  0  0  0  0
   12.5886   -5.0436   17.7032 H   0  0  0  0  0  0  0  0  0  0  0  0
    6.7508  -10.1029   24.8407 H   0  0  0  0  0  0  0  0  0  0  0  0
    8.9340   -9.0710   28.2096 H   0  0  0  0  0  0  0  0  0  0  0  0
    9.2607   -6.6583   27.9595 H   0  0  0  0  0  0  0  0  0  0  0  0
    7.6724   -5.9754   27.5039 H   0  0  0  0  0  0  0  0  0  0  0  0
    9.0332   -5.9896   26.3225 H   0  0  0  0  0  0  0  0  0  0  0  0
  1  2  1  0
  2  3  1  0
  3  4  1  0
  4  5  2  0
  4  6  1  0
  6  7  2  0
  7  8  1  0
  8  9  2  0
  9 10  1  0
 10 11  2  0
 10 12  1  0
 12 13  1  0
 13 14  1  0
 14 15  1  0
 15 16  1  0
  2 17  1  0
 17 18  2  0
 18 19  1  0
 19 20  2  0
 20 21  1  0
 21 22  1  0
 11  6  1  0
 21 17  1  0
 16  9  1  0
  1 23  1  0
  1 24  1  0
  1 25  1  0
  2 26  1  0
  3 27  1  0
  7 28  1  0
  8 29  1  0
 11 30  1  0
 12 31  1  0
 12 32  1  0
 13 33  1  0
 13 34  1  0
 14 35  1  0
 14 36  1  0
 15 37  1  0
 16 38  1  0
 16 39  1  0
 18 40  1  0
 20 41  1  0
 22 42  1  0
 22 43  1  0
 22 44  1  0
M  END
>  <Energy>  (581) 
693.01447033412023

>  <compound_id>  (581) 
46553

>  <target_id>  (581) 
1

>  <reference_id>  (581) 
146

>  <inspiration_ids>  (581) 
[116, 146]

>  <energy_score>  (581) 
649.5667438168864

>  <distance_score>  (581) 
8.238053022431982

>  <path>  (581) 
/opt/xchem-fragalysis-2/maxwin/BulkDock/SCRATCH/511023/C46553-P146/C46553-P146.minimised.mol

>  <scratch_subdir>  (581) 
/opt/xchem-fragalysis-2/maxwin/BulkDock/SCRATCH/511023/C46553-P146

>  <fragmenstein_runtime>  (581) 
20.94062352180481

>  <fragmenstein_outcome>  (581) 
too moved

>  <fragmenstein_mode>  (581) 
expansion

>  <fragmenstein_error>  (581) 


$$$$
C46555-P116
     RDKit          3D

 39 41  0  0  0  0  0  0  0  0999 V2000
    6.3935  -11.8352   19.5794 C   0  0  0  0  0  0  0  0  0  0  0  0
    7.2480  -10.3348   19.9809 C   0  0  0  0  0  0  0  0  0  0  0  0
    9.1111   -9.2949   19.7797 N   0  0  0  0  0  0  0  0  0  0  0  0
   10.3448   -8.6036   21.1525 C   0  0  0  0  0  0  0  0  0  0  0  0
   10.0642   -8.6929   22.3036 O   0  0  0  0  0  0  0  0  0  0  0  0
   11.6982   -8.0592   21.0636 C   0  0  0  0  0  0  0  0  0  0  0  0
   12.7031   -8.9102   21.6826 C   0  0  0  0  0  0  0  0  0  0  0  0
   13.8857   -8.2158   22.0046 C   0  0  0  0  0  0  0  0  0  0  0  0
   13.6178   -6.9030   21.7517 C   0  0  0  0  0  0  0  0  0  0  0  0
   12.2790   -6.8031   21.3943 N   0  0  0  0  0  0  0  0  0  0  0  0
   11.8159   -5.4627   21.1248 C   0  0  0  0  0  0  0  0  0  0  0  0
   12.8584   -4.6492   20.3066 C   0  0  0  0  0  0  0  0  0  0  0  0
   14.2757   -4.9277   20.5627 N   0  0  0  0  0  0  0  0  0  0  0  0
   14.4791   -5.6878   21.7840 C   0  0  0  0  0  0  0  0  0  0  0  0
    6.4494  -11.3331   21.6131 C   0  0  0  0  0  0  0  0  0  0  0  0
    7.2331  -11.9496   23.1133 C   0  0  0  0  0  0  0  0  0  0  0  0
    7.0674  -11.2682   24.2155 N   0  0  0  0  0  0  0  0  0  0  0  0
    5.8364  -11.4269   24.0271 C   0  0  0  0  0  0  0  0  0  0  0  0
    5.3173  -11.1184   22.7075 N   0  0  0  0  0  0  0  0  0  0  0  0
    3.9669  -11.7248   22.3721 C   0  0  0  0  0  0  0  0  0  0  0  0
    6.6541  -12.7449   20.1404 H   0  0  0  0  0  0  0  0  0  0  0  0
    6.1216  -11.9854   18.5468 H   0  0  0  0  0  0  0  0  0  0  0  0
    5.3866  -11.8464   19.9419 H   0  0  0  0  0  0  0  0  0  0  0  0
    7.2514  -10.4997   18.8947 H   0  0  0  0  0  0  0  0  0  0  0  0
    9.4488   -9.0738   18.9110 H   0  0  0  0  0  0  0  0  0  0  0  0
   12.5423   -9.9705   21.8501 H   0  0  0  0  0  0  0  0  0  0  0  0
   14.8132   -8.6286   22.3777 H   0  0  0  0  0  0  0  0  0  0  0  0
   11.6881   -4.9865   22.1034 H   0  0  0  0  0  0  0  0  0  0  0  0
   10.8432   -5.5698   20.6642 H   0  0  0  0  0  0  0  0  0  0  0  0
   12.6926   -3.5898   20.5136 H   0  0  0  0  0  0  0  0  0  0  0  0
   12.7004   -4.8012   19.2351 H   0  0  0  0  0  0  0  0  0  0  0  0
   14.8193   -4.0702   20.5745 H   0  0  0  0  0  0  0  0  0  0  0  0
   15.5333   -5.9771   21.8543 H   0  0  0  0  0  0  0  0  0  0  0  0
   14.2479   -5.0804   22.6671 H   0  0  0  0  0  0  0  0  0  0  0  0
    8.2529  -12.3533   23.0655 H   0  0  0  0  0  0  0  0  0  0  0  0
    5.2861  -11.9590   24.7788 H   0  0  0  0  0  0  0  0  0  0  0  0
    3.9883  -12.2805   21.4351 H   0  0  0  0  0  0  0  0  0  0  0  0
    3.3859  -12.3335   23.0974 H   0  0  0  0  0  0  0  0  0  0  0  0
    3.4312  -10.8737   22.4181 H   0  0  0  0  0  0  0  0  0  0  0  0
  1  2  1  0
  2  3  1  0
  3  4  1  0
  4  5  2  0
  4  6  1  0
  6  7  2  0
  7  8  1  0
  8  9  2  0
  9 10  1  0
 10 11  1  0
 11 12  1  0
 12 13  1  0
 13 14  1  0
  2 15  1  0
 15 16  2  0
 16 17  1  0
 17 18  2  0
 18 19  1  0
 19 20  1  0
 10  6  1  0
 19 15  1  0
 14  9  1  0
  1 21  1  0
  1 22  1  0
  1 23  1  0
  2 24  1  0
  3 25  1  0
  7 26  1  0
  8 27  1  0
 11 28  1  0
 11 29  1  0
 12 30  1  0
 12 31  1  0
 13 32  1  0
 14 33  1  0
 14 34  1  0
 16 35  1  0
 18 36  1  0
 20 37  1  0
 20 38  1  0
 20 39  1  0
M  END
>  <Energy>  (582) 
697.35947516127078

>  <compound_id>  (582) 
46555

>  <target_id>  (582) 
1

>  <reference_id>  (582) 
116

>  <inspiration_ids>  (582) 
[116, 146]

>  <energy_score>  (582) 
699.03642317098

>  <distance_score>  (582) 
8.709237804782886

>  <path>  (582) 
/opt/xchem-fragalysis-2/maxwin/BulkDock/SCRATCH/511023/C46555-P116/C46555-P116.minimised.mol

>  <scratch_subdir>  (582) 
/opt/xchem-fragalysis-2/maxwin/BulkDock/SCRATCH/511023/C46555-P116

>  <fragmenstein_runtime>  (582) 
17.006376028060913

>  <fragmenstein_outcome>  (582) 
too moved

>  <fragmenstein_mode>  (582) 
expansion

>  <fragmenstein_error>  (582) 


$$$$
C46555-P146
     RDKit          3D

 39 41  0  0  0  0  0  0  0  0999 V2000
    5.0038   -7.5638   23.5465 C   0  0  0  0  0  0  0  0  0  0  0  0
    6.3520   -7.5511   22.2069 C   0  0  0  0  0  0  0  0  0  0  0  0
    7.2436   -6.9347   21.1307 N   0  0  0  0  0  0  0  0  0  0  0  0
    8.9817   -7.6193   20.0224 C   0  0  0  0  0  0  0  0  0  0  0  0
    9.5330   -8.7318   19.9341 O   0  0  0  0  0  0  0  0  0  0  0  0
    9.9039   -5.9682   19.2114 C   0  0  0  0  0  0  0  0  0  0  0  0
   11.2392   -5.7250   20.3329 C   0  0  0  0  0  0  0  0  0  0  0  0
   12.5118   -5.0532   19.9936 C   0  0  0  0  0  0  0  0  0  0  0  0
   12.5315   -4.7483   18.6503 C   0  0  0  0  0  0  0  0  0  0  0  0
   11.0293   -4.9177   17.9721 N   0  0  0  0  0  0  0  0  0  0  0  0
   11.3298   -4.5547   16.5666 C   0  0  0  0  0  0  0  0  0  0  0  0
   12.2770   -3.3486   16.2763 C   0  0  0  0  0  0  0  0  0  0  0  0
   13.4450   -3.1598   17.1065 N   0  0  0  0  0  0  0  0  0  0  0  0
   13.7253   -4.3654   17.8422 C   0  0  0  0  0  0  0  0  0  0  0  0
    7.3043   -7.3546   23.8926 C   0  0  0  0  0  0  0  0  0  0  0  0
    7.7068   -8.3842   24.7938 C   0  0  0  0  0  0  0  0  0  0  0  0
    7.8361   -7.9628   26.0859 N   0  0  0  0  0  0  0  0  0  0  0  0
    7.5476   -6.6922   26.0357 C   0  0  0  0  0  0  0  0  0  0  0  0
    7.2760   -6.2565   24.7595 N   0  0  0  0  0  0  0  0  0  0  0  0
    7.0789   -4.8564   24.5010 C   0  0  0  0  0  0  0  0  0  0  0  0
    4.1336   -8.1646   23.2916 H   0  0  0  0  0  0  0  0  0  0  0  0
    4.8807   -6.6128   24.0539 H   0  0  0  0  0  0  0  0  0  0  0  0
    5.2637   -8.1558   24.4489 H   0  0  0  0  0  0  0  0  0  0  0  0
    6.3694   -6.5190   22.5345 H   0  0  0  0  0  0  0  0  0  0  0  0
    7.1454   -5.9491   21.0218 H   0  0  0  0  0  0  0  0  0  0  0  0
   11.3874   -6.4989   21.0557 H   0  0  0  0  0  0  0  0  0  0  0  0
   13.3768   -5.0516   20.6436 H   0  0  0  0  0  0  0  0  0  0  0  0
   11.7270   -5.5017   16.2646 H   0  0  0  0  0  0  0  0  0  0  0  0
   10.5180   -4.1949   15.9576 H   0  0  0  0  0  0  0  0  0  0  0  0
   11.6917   -2.4231   16.3464 H   0  0  0  0  0  0  0  0  0  0  0  0
   12.5884   -3.4110   15.2266 H   0  0  0  0  0  0  0  0  0  0  0  0
   14.2531   -2.8936   16.5491 H   0  0  0  0  0  0  0  0  0  0  0  0
   14.0146   -5.1878   17.1773 H   0  0  0  0  0  0  0  0  0  0  0  0
   14.5793   -4.1844   18.5049 H   0  0  0  0  0  0  0  0  0  0  0  0
    7.7986   -9.4424   24.5793 H   0  0  0  0  0  0  0  0  0  0  0  0
    7.5475   -6.0202   26.8839 H   0  0  0  0  0  0  0  0  0  0  0  0
    6.1023   -4.5681   24.8931 H   0  0  0  0  0  0  0  0  0  0  0  0
    7.8537   -4.2930   25.0309 H   0  0  0  0  0  0  0  0  0  0  0  0
    7.1750   -4.6458   23.4429 H   0  0  0  0  0  0  0  0  0  0  0  0
  1  2  1  0
  2  3  1  0
  3  4  1  0
  4  5  2  0
  4  6  1  0
  6  7  2  0
  7  8  1  0
  8  9  2  0
  9 10  1  0
 10 11  1  0
 11 12  1  0
 12 13  1  0
 13 14  1  0
  2 15  1  0
 15 16  2  0
 16 17  1  0
 17 18  2  0
 18 19  1  0
 19 20  1  0
 10  6  1  0
 19 15  1  0
 14  9  1  0
  1 21  1  0
  1 22  1  0
  1 23  1  0
  2 24  1  0
  3 25  1  0
  7 26  1  0
  8 27  1  0
 11 28  1  0
 11 29  1  0
 12 30  1  0
 12 31  1  0
 13 32  1  0
 14 33  1  0
 14 34  1  0
 16 35  1  0
 18 36  1  0
 20 37  1  0
 20 38  1  0
 20 39  1  0
M  END
>  <Energy>  (583) 
815.62314475414098

>  <compound_id>  (583) 
46555

>  <target_id>  (583) 
1

>  <reference_id>  (583) 
146

>  <inspiration_ids>  (583) 
[116, 146]

>  <energy_score>  (583) 
817.3000927638511

>  <distance_score>  (583) 
7.895481156405209

>  <path>  (583) 
/opt/xchem-fragalysis-2/maxwin/BulkDock/SCRATCH/511023/C46555-P146/C46555-P146.minimised.mol

>  <scratch_subdir>  (583) 
/opt/xchem-fragalysis-2/maxwin/BulkDock/SCRATCH/511023/C46555-P146

>  <fragmenstein_runtime>  (583) 
15.86048173904419

>  <fragmenstein_outcome>  (583) 
too moved

>  <fragmenstein_mode>  (583) 
expansion

>  <fragmenstein_error>  (583) 


$$$$
C46556-P116
     RDKit          3D

 41 43  0  0  0  0  0  0  0  0999 V2000
   14.8565   -7.1760   21.6241 O   0  0  0  0  0  0  0  0  0  0  0  0
   13.9837   -6.4266   21.9612 C   0  0  0  0  0  0  0  0  0  0  0  0
   13.9330   -5.0337   21.2495 C   0  0  0  0  0  0  0  0  0  0  0  0
   14.7342   -4.9509   19.8906 C   0  0  0  0  0  0  0  0  0  0  0  0
   14.2267   -3.8470   18.9551 C   0  0  0  0  0  0  0  0  0  0  0  0
   14.2402   -2.6478   19.5989 F   0  0  0  0  0  0  0  0  0  0  0  0
   12.9441   -4.0604   18.5917 F   0  0  0  0  0  0  0  0  0  0  0  0
   16.1898   -4.7703   19.9526 N   0  0  0  0  0  0  0  0  0  0  0  0
   17.0954   -5.5191   19.2373 C   0  0  0  0  0  0  0  0  0  0  0  0
   18.2527   -4.7771   19.2160 C   0  0  0  0  0  0  0  0  0  0  0  0
   18.0851   -3.6036   19.9013 N   0  0  0  0  0  0  0  0  0  0  0  0
   16.8499   -3.6347   20.3509 C   0  0  0  0  0  0  0  0  0  0  0  0
   12.9514   -6.5671   22.9907 N   0  0  0  0  0  0  0  0  0  0  0  0
   12.7263   -7.6257   23.9931 C   0  0  0  0  0  0  0  0  0  0  0  0
   11.3397   -7.8577   24.6103 C   0  0  0  0  0  0  0  0  0  0  0  0
   10.6612   -6.8622   25.3461 C   0  0  0  0  0  0  0  0  0  0  0  0
    9.4030   -7.1035   25.9617 C   0  0  0  0  0  0  0  0  0  0  0  0
    8.8265   -8.3585   25.8697 C   0  0  0  0  0  0  0  0  0  0  0  0
    9.5107   -9.3846   25.2321 C   0  0  0  0  0  0  0  0  0  0  0  0
   10.7545   -9.1525   24.6118 C   0  0  0  0  0  0  0  0  0  0  0  0
    8.7067  -10.6449   25.3815 C   0  0  0  0  0  0  0  0  0  0  0  0
    7.3425  -10.1936   25.7422 N   0  0  0  0  0  0  0  0  0  0  0  0
    7.5183   -8.8684   26.3913 C   0  0  0  0  0  0  0  0  0  0  0  0
   12.8769   -4.8213   21.0441 H   0  0  0  0  0  0  0  0  0  0  0  0
   14.3067   -4.2846   21.9562 H   0  0  0  0  0  0  0  0  0  0  0  0
   14.5759   -5.9045   19.3779 H   0  0  0  0  0  0  0  0  0  0  0  0
   14.8209   -3.7519   18.0404 H   0  0  0  0  0  0  0  0  0  0  0  0
   16.8347   -6.4718   18.7951 H   0  0  0  0  0  0  0  0  0  0  0  0
   19.1928   -5.0235   18.7400 H   0  0  0  0  0  0  0  0  0  0  0  0
   16.3747   -2.8480   20.9235 H   0  0  0  0  0  0  0  0  0  0  0  0
   12.4316   -5.7009   23.0590 H   0  0  0  0  0  0  0  0  0  0  0  0
   13.4249   -7.4184   24.8128 H   0  0  0  0  0  0  0  0  0  0  0  0
   13.0770   -8.5547   23.5276 H   0  0  0  0  0  0  0  0  0  0  0  0
   11.1018   -5.8710   25.4493 H   0  0  0  0  0  0  0  0  0  0  0  0
    8.8959   -6.2991   26.4904 H   0  0  0  0  0  0  0  0  0  0  0  0
   11.2697   -9.9843   24.1351 H   0  0  0  0  0  0  0  0  0  0  0  0
    8.6837  -11.2394   24.4653 H   0  0  0  0  0  0  0  0  0  0  0  0
    9.1213  -11.2555   26.1909 H   0  0  0  0  0  0  0  0  0  0  0  0
    6.8626  -10.0031   24.8546 H   0  0  0  0  0  0  0  0  0  0  0  0
    7.5635   -8.9902   27.4783 H   0  0  0  0  0  0  0  0  0  0  0  0
    6.6900   -8.2035   26.1280 H   0  0  0  0  0  0  0  0  0  0  0  0
  1  2  2  0
  2  3  1  0
  3  4  1  0
  4  5  1  0
  5  6  1  0
  5  7  1  0
  4  8  1  0
  8  9  1  0
  9 10  2  0
 10 11  1  0
 11 12  2  0
  2 13  1  0
 13 14  1  0
 14 15  1  0
 15 16  2  0
 16 17  1  0
 17 18  2  0
 18 19  1  0
 19 20  2  0
 19 21  1  0
 21 22  1  0
 22 23  1  0
 12  8  1  0
 20 15  1  0
 23 18  1  0
  3 24  1  0
  3 25  1  0
  4 26  1  0
  5 27  1  0
  9 28  1  0
 10 29  1  0
 12 30  1  0
 13 31  1  0
 14 32  1  0
 14 33  1  0
 16 34  1  0
 17 35  1  0
 20 36  1  0
 21 37  1  0
 21 38  1  0
 22 39  1  0
 23 40  1  0
 23 41  1  0
M  END
>  <Energy>  (584) 
1.2609624789105784

>  <compound_id>  (584) 
46556

>  <target_id>  (584) 
1

>  <reference_id>  (584) 
116

>  <inspiration_ids>  (584) 
[116, 146]

>  <energy_score>  (584) 
-13.295027097039565

>  <distance_score>  (584) 
8.209014392157883

>  <path>  (584) 
/opt/xchem-fragalysis-2/maxwin/BulkDock/SCRATCH/511023/C46556-P116/C46556-P116.minimised.mol

>  <scratch_subdir>  (584) 
/opt/xchem-fragalysis-2/maxwin/BulkDock/SCRATCH/511023/C46556-P116

>  <fragmenstein_runtime>  (584) 
18.00837540626526

>  <fragmenstein_outcome>  (584) 
too moved

>  <fragmenstein_mode>  (584) 
expansion

>  <fragmenstein_error>  (584) 


$$$$
C46556-P146
     RDKit          3D

 41 43  0  0  0  0  0  0  0  0999 V2000
   15.5257   -6.2447   22.7437 O   0  0  0  0  0  0  0  0  0  0  0  0
   14.4418   -5.7354   22.7188 C   0  0  0  0  0  0  0  0  0  0  0  0
   14.1680   -4.6967   21.5729 C   0  0  0  0  0  0  0  0  0  0  0  0
   15.4584   -4.2742   20.7534 C   0  0  0  0  0  0  0  0  0  0  0  0
   15.7843   -2.7879   20.8947 C   0  0  0  0  0  0  0  0  0  0  0  0
   15.9979   -2.4897   22.1976 F   0  0  0  0  0  0  0  0  0  0  0  0
   14.7263   -2.0307   20.4966 F   0  0  0  0  0  0  0  0  0  0  0  0
   15.4463   -4.5681   19.3151 N   0  0  0  0  0  0  0  0  0  0  0  0
   16.4258   -5.2485   18.6347 C   0  0  0  0  0  0  0  0  0  0  0  0
   16.1754   -5.0164   17.3011 C   0  0  0  0  0  0  0  0  0  0  0  0
   15.0734   -4.2170   17.1528 N   0  0  0  0  0  0  0  0  0  0  0  0
   14.6456   -3.9811   18.3713 C   0  0  0  0  0  0  0  0  0  0  0  0
   13.2614   -5.9724   23.5442 N   0  0  0  0  0  0  0  0  0  0  0  0
   13.0654   -6.8382   24.7230 C   0  0  0  0  0  0  0  0  0  0  0  0
   11.6467   -7.2038   25.1744 C   0  0  0  0  0  0  0  0  0  0  0  0
   10.8413   -6.2589   25.8516 C   0  0  0  0  0  0  0  0  0  0  0  0
    9.5466   -6.5795   26.3346 C   0  0  0  0  0  0  0  0  0  0  0  0
    9.0504   -7.8573   26.1517 C   0  0  0  0  0  0  0  0  0  0  0  0
    9.8415   -8.8289   25.5512 C   0  0  0  0  0  0  0  0  0  0  0  0
   11.1263   -8.5211   25.0559 C   0  0  0  0  0  0  0  0  0  0  0  0
    9.0942  -10.1299   25.6231 C   0  0  0  0  0  0  0  0  0  0  0  0
    7.6785   -9.7651   25.8657 N   0  0  0  0  0  0  0  0  0  0  0  0
    7.7256   -8.4379   26.5305 C   0  0  0  0  0  0  0  0  0  0  0  0
   13.7178   -3.8124   22.0390 H   0  0  0  0  0  0  0  0  0  0  0  0
   13.4249   -5.1426   20.9026 H   0  0  0  0  0  0  0  0  0  0  0  0
   16.3269   -4.8134   21.1473 H   0  0  0  0  0  0  0  0  0  0  0  0
   16.6652   -2.4819   20.3214 H   0  0  0  0  0  0  0  0  0  0  0  0
   17.2055   -5.8092   19.1333 H   0  0  0  0  0  0  0  0  0  0  0  0
   16.7281   -5.3797   16.4430 H   0  0  0  0  0  0  0  0  0  0  0  0
   13.7863   -3.3742   18.6210 H   0  0  0  0  0  0  0  0  0  0  0  0
   12.5449   -5.3005   23.2981 H   0  0  0  0  0  0  0  0  0  0  0  0
   13.6390   -7.7537   24.5366 H   0  0  0  0  0  0  0  0  0  0  0  0
   13.5749   -6.3387   25.5561 H   0  0  0  0  0  0  0  0  0  0  0  0
   11.2042   -5.2424   26.0009 H   0  0  0  0  0  0  0  0  0  0  0  0
    8.9446   -5.8101   26.8116 H   0  0  0  0  0  0  0  0  0  0  0  0
   11.7239   -9.3103   24.6038 H   0  0  0  0  0  0  0  0  0  0  0  0
    9.4694  -10.7130   26.4702 H   0  0  0  0  0  0  0  0  0  0  0  0
    9.2010  -10.7281   24.7204 H   0  0  0  0  0  0  0  0  0  0  0  0
    7.2360   -9.6145   24.9479 H   0  0  0  0  0  0  0  0  0  0  0  0
    7.6650   -8.5662   27.6163 H   0  0  0  0  0  0  0  0  0  0  0  0
    6.8964   -7.8120   26.1869 H   0  0  0  0  0  0  0  0  0  0  0  0
  1  2  2  0
  2  3  1  0
  3  4  1  0
  4  5  1  0
  5  6  1  0
  5  7  1  0
  4  8  1  0
  8  9  1  0
  9 10  2  0
 10 11  1  0
 11 12  2  0
  2 13  1  0
 13 14  1  0
 14 15  1  0
 15 16  2  0
 16 17  1  0
 17 18  2  0
 18 19  1  0
 19 20  2  0
 19 21  1  0
 21 22  1  0
 22 23  1  0
 12  8  1  0
 20 15  1  0
 23 18  1  0
  3 24  1  0
  3 25  1  0
  4 26  1  0
  5 27  1  0
  9 28  1  0
 10 29  1  0
 12 30  1  0
 13 31  1  0
 14 32  1  0
 14 33  1  0
 16 34  1  0
 17 35  1  0
 20 36  1  0
 21 37  1  0
 21 38  1  0
 22 39  1  0
 23 40  1  0
 23 41  1  0
M  END
>  <Energy>  (585) 
-1.1218523511259311

>  <compound_id>  (585) 
46556

>  <target_id>  (585) 
1

>  <reference_id>  (585) 
146

>  <inspiration_ids>  (585) 
[116, 146]

>  <energy_score>  (585) 
-15.677841927080692

>  <distance_score>  (585) 
8.35991777825014

>  <path>  (585) 
/opt/xchem-fragalysis-2/maxwin/BulkDock/SCRATCH/511023/C46556-P146/C46556-P146.minimised.mol

>  <scratch_subdir>  (585) 
/opt/xchem-fragalysis-2/maxwin/BulkDock/SCRATCH/511023/C46556-P146

>  <fragmenstein_runtime>  (585) 
22.128360986709595

>  <fragmenstein_outcome>  (585) 
too moved

>  <fragmenstein_mode>  (585) 
expansion

>  <fragmenstein_error>  (585) 


$$$$
C46558-P116
     RDKit          3D

 40 42  0  0  0  0  0  0  0  0999 V2000
    1.3139   -9.1118   21.5630 C   0  0  0  0  0  0  0  0  0  0  0  0
    2.8435   -8.9919   22.4253 N   0  0  0  0  0  0  0  0  0  0  0  0
    3.5307  -10.8607   22.4261 C   0  0  0  0  0  0  0  0  0  0  0  0
    4.8105  -10.5617   22.7653 N   0  0  0  0  0  0  0  0  0  0  0  0
    4.4486   -8.9081   23.3460 C   0  0  0  0  0  0  0  0  0  0  0  0
    4.5256   -8.0730   22.2892 C   0  0  0  0  0  0  0  0  0  0  0  0
    6.2203   -7.3597   21.1758 C   0  0  0  0  0  0  0  0  0  0  0  0
    6.3161   -6.6472   22.9648 C   0  0  0  0  0  0  0  0  0  0  0  0
    6.3383   -5.3501   23.5315 O   0  0  0  0  0  0  0  0  0  0  0  0
    7.4274   -6.8194   19.5490 N   0  0  0  0  0  0  0  0  0  0  0  0
    9.4380   -6.2035   19.5027 C   0  0  0  0  0  0  0  0  0  0  0  0
    9.9671   -6.2887   20.5819 O   0  0  0  0  0  0  0  0  0  0  0  0
   10.7083   -5.3509   18.3093 C   0  0  0  0  0  0  0  0  0  0  0  0
   12.1313   -4.9969   19.0858 C   0  0  0  0  0  0  0  0  0  0  0  0
   12.8443   -3.9282   18.5024 C   0  0  0  0  0  0  0  0  0  0  0  0
   12.1176   -3.5502   17.3989 C   0  0  0  0  0  0  0  0  0  0  0  0
   11.3130   -4.6698   17.0471 N   0  0  0  0  0  0  0  0  0  0  0  0
   11.9868   -5.2966   15.8767 C   0  0  0  0  0  0  0  0  0  0  0  0
   13.2724   -4.5270   15.4340 C   0  0  0  0  0  0  0  0  0  0  0  0
   12.9738   -3.1079   15.1626 N   0  0  0  0  0  0  0  0  0  0  0  0
   12.4463   -2.5007   16.3851 C   0  0  0  0  0  0  0  0  0  0  0  0
    0.7143   -9.9990   21.7547 H   0  0  0  0  0  0  0  0  0  0  0  0
    0.8117   -8.1582   21.4192 H   0  0  0  0  0  0  0  0  0  0  0  0
    1.6118   -9.6676   20.7138 H   0  0  0  0  0  0  0  0  0  0  0  0
    2.9776  -11.8272   22.5752 H   0  0  0  0  0  0  0  0  0  0  0  0
    5.0561   -8.5144   24.2444 H   0  0  0  0  0  0  0  0  0  0  0  0
    5.7144   -7.7866   20.3477 H   0  0  0  0  0  0  0  0  0  0  0  0
    5.3883   -6.8112   23.4842 H   0  0  0  0  0  0  0  0  0  0  0  0
    6.9166   -7.2813   23.6284 H   0  0  0  0  0  0  0  0  0  0  0  0
    6.7708   -4.6962   22.9757 H   0  0  0  0  0  0  0  0  0  0  0  0
    7.0212   -6.6410   18.6502 H   0  0  0  0  0  0  0  0  0  0  0  0
   12.2977   -5.4056   20.0789 H   0  0  0  0  0  0  0  0  0  0  0  0
   13.7170   -3.4341   18.9059 H   0  0  0  0  0  0  0  0  0  0  0  0
   12.2414   -6.3124   16.1374 H   0  0  0  0  0  0  0  0  0  0  0  0
   11.2916   -5.2387   15.0447 H   0  0  0  0  0  0  0  0  0  0  0  0
   13.7102   -4.9573   14.5478 H   0  0  0  0  0  0  0  0  0  0  0  0
   14.0741   -4.6069   16.1797 H   0  0  0  0  0  0  0  0  0  0  0  0
   12.2522   -3.0587   14.4452 H   0  0  0  0  0  0  0  0  0  0  0  0
   11.5527   -1.9124   16.1510 H   0  0  0  0  0  0  0  0  0  0  0  0
   13.1992   -1.8142   16.7853 H   0  0  0  0  0  0  0  0  0  0  0  0
  1  2  1  0
  2  3  1  0
  3  4  2  0
  4  5  1  0
  5  6  2  0
  6  7  1  0
  7  8  1  0
  8  9  1  0
  7 10  1  0
 10 11  1  0
 11 12  2  0
 11 13  1  0
 13 14  2  0
 14 15  1  0
 15 16  2  0
 16 17  1  0
 17 18  1  0
 18 19  1  0
 19 20  1  0
 20 21  1  0
  6  2  1  0
 17 13  1  0
 21 16  1  0
  1 22  1  0
  1 23  1  0
  1 24  1  0
  3 25  1  0
  5 26  1  0
  7 27  1  0
  8 28  1  0
  8 29  1  0
  9 30  1  0
 10 31  1  0
 14 32  1  0
 15 33  1  0
 18 34  1  0
 18 35  1  0
 19 36  1  0
 19 37  1  0
 20 38  1  0
 21 39  1  0
 21 40  1  0
M  END
>  <Energy>  (586) 
1239.2278619389397

>  <compound_id>  (586) 
46558

>  <target_id>  (586) 
1

>  <reference_id>  (586) 
116

>  <inspiration_ids>  (586) 
[116, 146]

>  <energy_score>  (586) 
1225.3823722992677

>  <distance_score>  (586) 
6.185395746033972

>  <path>  (586) 
/opt/xchem-fragalysis-2/maxwin/BulkDock/SCRATCH/511023/C46558-P116/C46558-P116.minimised.mol

>  <scratch_subdir>  (586) 
/opt/xchem-fragalysis-2/maxwin/BulkDock/SCRATCH/511023/C46558-P116

>  <fragmenstein_runtime>  (586) 
13.783466100692749

>  <fragmenstein_outcome>  (586) 
too moved

>  <fragmenstein_mode>  (586) 
expansion

>  <fragmenstein_error>  (586) 


$$$$
C46558-P146
     RDKit          3D

 40 42  0  0  0  0  0  0  0  0999 V2000
    4.0904   -5.3551   26.0411 C   0  0  0  0  0  0  0  0  0  0  0  0
    4.8083   -6.3575   25.2880 N   0  0  0  0  0  0  0  0  0  0  0  0
    4.6934   -7.6661   25.6724 C   0  0  0  0  0  0  0  0  0  0  0  0
    5.8539   -8.2548   25.6110 N   0  0  0  0  0  0  0  0  0  0  0  0
    6.6286   -7.4030   24.8666 C   0  0  0  0  0  0  0  0  0  0  0  0
    5.9304   -6.2727   24.4480 C   0  0  0  0  0  0  0  0  0  0  0  0
    6.5712   -4.8694   23.5317 C   0  0  0  0  0  0  0  0  0  0  0  0
    6.5103   -3.8249   24.9323 C   0  0  0  0  0  0  0  0  0  0  0  0
    5.3210   -3.0164   25.0324 O   0  0  0  0  0  0  0  0  0  0  0  0
    7.4966   -5.5737   22.1552 N   0  0  0  0  0  0  0  0  0  0  0  0
    8.5590   -4.7600   20.7581 C   0  0  0  0  0  0  0  0  0  0  0  0
    8.5807   -3.5883   20.6573 O   0  0  0  0  0  0  0  0  0  0  0  0
    9.9396   -5.5860   19.4994 C   0  0  0  0  0  0  0  0  0  0  0  0
   10.8588   -4.9106   17.9124 C   0  0  0  0  0  0  0  0  0  0  0  0
   12.3278   -4.6699   17.9090 C   0  0  0  0  0  0  0  0  0  0  0  0
   12.7801   -4.9985   19.1426 C   0  0  0  0  0  0  0  0  0  0  0  0
   11.6881   -5.4437   20.1468 N   0  0  0  0  0  0  0  0  0  0  0  0
   12.2308   -4.9700   21.4518 C   0  0  0  0  0  0  0  0  0  0  0  0
   13.5740   -4.1619   21.6106 C   0  0  0  0  0  0  0  0  0  0  0  0
   14.2628   -3.7074   20.4173 N   0  0  0  0  0  0  0  0  0  0  0  0
   14.2171   -4.8215   19.5100 C   0  0  0  0  0  0  0  0  0  0  0  0
    4.7317   -4.9928   26.8481 H   0  0  0  0  0  0  0  0  0  0  0  0
    3.2176   -5.8180   26.5038 H   0  0  0  0  0  0  0  0  0  0  0  0
    3.7408   -4.5427   25.4205 H   0  0  0  0  0  0  0  0  0  0  0  0
    3.7964   -8.0795   26.1009 H   0  0  0  0  0  0  0  0  0  0  0  0
    7.6508   -7.6588   24.6356 H   0  0  0  0  0  0  0  0  0  0  0  0
    7.4636   -5.2799   24.0026 H   0  0  0  0  0  0  0  0  0  0  0  0
    6.5207   -4.4600   25.8256 H   0  0  0  0  0  0  0  0  0  0  0  0
    7.3121   -3.1536   25.2234 H   0  0  0  0  0  0  0  0  0  0  0  0
    5.5559   -2.2338   25.5648 H   0  0  0  0  0  0  0  0  0  0  0  0
    7.5104   -6.5516   22.0483 H   0  0  0  0  0  0  0  0  0  0  0  0
   10.5534   -4.4795   16.9713 H   0  0  0  0  0  0  0  0  0  0  0  0
   12.8924   -4.2666   17.0792 H   0  0  0  0  0  0  0  0  0  0  0  0
   11.5464   -4.2833   21.8972 H   0  0  0  0  0  0  0  0  0  0  0  0
   12.4607   -5.8825   21.9992 H   0  0  0  0  0  0  0  0  0  0  0  0
   13.4027   -3.3023   22.2675 H   0  0  0  0  0  0  0  0  0  0  0  0
   14.2663   -4.7948   22.1862 H   0  0  0  0  0  0  0  0  0  0  0  0
   15.2272   -3.4763   20.6424 H   0  0  0  0  0  0  0  0  0  0  0  0
   14.8159   -4.5887   18.6215 H   0  0  0  0  0  0  0  0  0  0  0  0
   14.6561   -5.7240   19.9499 H   0  0  0  0  0  0  0  0  0  0  0  0
  1  2  1  0
  2  3  1  0
  3  4  2  0
  4  5  1  0
  5  6  2  0
  6  7  1  0
  7  8  1  0
  8  9  1  0
  7 10  1  0
 10 11  1  0
 11 12  2  0
 11 13  1  0
 13 14  2  0
 14 15  1  0
 15 16  2  0
 16 17  1  0
 17 18  1  0
 18 19  1  0
 19 20  1  0
 20 21  1  0
  6  2  1  0
 17 13  1  0
 21 16  1  0
  1 22  1  0
  1 23  1  0
  1 24  1  0
  3 25  1  0
  5 26  1  0
  7 27  1  0
  8 28  1  0
  8 29  1  0
  9 30  1  0
 10 31  1  0
 14 32  1  0
 15 33  1  0
 18 34  1  0
 18 35  1  0
 19 36  1  0
 19 37  1  0
 20 38  1  0
 21 39  1  0
 21 40  1  0
M  END
>  <Energy>  (587) 
615.42988160918458

>  <compound_id>  (587) 
46558

>  <target_id>  (587) 
1

>  <reference_id>  (587) 
146

>  <inspiration_ids>  (587) 
[116, 146]

>  <energy_score>  (587) 
601.5843919694964

>  <distance_score>  (587) 
7.777442996884932

>  <path>  (587) 
/opt/xchem-fragalysis-2/maxwin/BulkDock/SCRATCH/511023/C46558-P146/C46558-P146.minimised.mol

>  <scratch_subdir>  (587) 
/opt/xchem-fragalysis-2/maxwin/BulkDock/SCRATCH/511023/C46558-P146

>  <fragmenstein_runtime>  (587) 
17.86831760406494

>  <fragmenstein_outcome>  (587) 
too moved

>  <fragmenstein_mode>  (587) 
expansion

>  <fragmenstein_error>  (587) 


$$$$
C46561-P116
     RDKit          3D

 35 37  0  0  0  0  0  0  0  0999 V2000
    7.5300  -10.4767   27.4757 C   0  0  0  0  0  0  0  0  0  0  0  0
    7.5098   -9.2213   26.6807 C   0  0  0  0  0  0  0  0  0  0  0  0
    6.3486   -8.4995   26.5247 N   0  0  0  0  0  0  0  0  0  0  0  0
    6.6119   -7.4533   25.6951 C   0  0  0  0  0  0  0  0  0  0  0  0
    7.8825   -7.4127   25.3638 N   0  0  0  0  0  0  0  0  0  0  0  0
    8.4807   -8.5062   25.9710 C   0  0  0  0  0  0  0  0  0  0  0  0
    9.9433   -8.7756   25.7860 C   0  0  0  0  0  0  0  0  0  0  0  0
   10.3900   -9.8168   26.1687 O   0  0  0  0  0  0  0  0  0  0  0  0
   10.5845   -7.6606   25.1232 N   0  0  0  0  0  0  0  0  0  0  0  0
   11.9850   -7.4180   24.8033 C   0  0  0  0  0  0  0  0  0  0  0  0
   12.3265   -6.3931   23.7217 C   0  0  0  0  0  0  0  0  0  0  0  0
   12.1816   -6.6981   22.3511 C   0  0  0  0  0  0  0  0  0  0  0  0
   12.5986   -5.7980   21.3542 C   0  0  0  0  0  0  0  0  0  0  0  0
   13.2012   -4.6177   21.7101 C   0  0  0  0  0  0  0  0  0  0  0  0
   13.3355   -4.2843   23.0435 C   0  0  0  0  0  0  0  0  0  0  0  0
   12.8996   -5.1452   24.0537 C   0  0  0  0  0  0  0  0  0  0  0  0
   14.0482   -2.9730   23.1232 C   0  0  0  0  0  0  0  0  0  0  0  0
   14.0214   -2.4109   21.7406 N   0  0  0  0  0  0  0  0  0  0  0  0
   13.8449   -3.5855   20.8508 C   0  0  0  0  0  0  0  0  0  0  0  0
    6.6048  -10.6096   28.0457 H   0  0  0  0  0  0  0  0  0  0  0  0
    7.6503  -11.3396   26.8132 H   0  0  0  0  0  0  0  0  0  0  0  0
    8.3637  -10.4657   28.1846 H   0  0  0  0  0  0  0  0  0  0  0  0
    5.4400   -8.7189   26.9076 H   0  0  0  0  0  0  0  0  0  0  0  0
    5.8482   -6.7563   25.3700 H   0  0  0  0  0  0  0  0  0  0  0  0
    9.9116   -6.9048   25.0202 H   0  0  0  0  0  0  0  0  0  0  0  0
   12.4610   -7.1220   25.7458 H   0  0  0  0  0  0  0  0  0  0  0  0
   12.4338   -8.3827   24.5373 H   0  0  0  0  0  0  0  0  0  0  0  0
   11.7472   -7.6509   22.0566 H   0  0  0  0  0  0  0  0  0  0  0  0
   12.4795   -6.0003   20.3033 H   0  0  0  0  0  0  0  0  0  0  0  0
   13.0467   -4.8665   25.0945 H   0  0  0  0  0  0  0  0  0  0  0  0
   15.0870   -3.1252   23.4350 H   0  0  0  0  0  0  0  0  0  0  0  0
   13.5560   -2.2869   23.8195 H   0  0  0  0  0  0  0  0  0  0  0  0
   13.1498   -1.8776   21.7207 H   0  0  0  0  0  0  0  0  0  0  0  0
   13.2441   -3.3425   19.9730 H   0  0  0  0  0  0  0  0  0  0  0  0
   14.8270   -3.9382   20.5170 H   0  0  0  0  0  0  0  0  0  0  0  0
  1  2  1  0
  2  3  1  0
  3  4  1  0
  4  5  2  0
  5  6  1  0
  6  7  1  0
  7  8  2  0
  7  9  1  0
  9 10  1  0
 10 11  1  0
 11 12  2  0
 12 13  1  0
 13 14  2  0
 14 15  1  0
 15 16  2  0
 15 17  1  0
 17 18  1  0
 18 19  1  0
  6  2  2  0
 16 11  1  0
 19 14  1  0
  1 20  1  0
  1 21  1  0
  1 22  1  0
  3 23  1  0
  4 24  1  0
  9 25  1  0
 10 26  1  0
 10 27  1  0
 12 28  1  0
 13 29  1  0
 16 30  1  0
 17 31  1  0
 17 32  1  0
 18 33  1  0
 19 34  1  0
 19 35  1  0
M  END
>  <Energy>  (588) 
35.121335330270419

>  <compound_id>  (588) 
46561

>  <target_id>  (588) 
1

>  <reference_id>  (588) 
116

>  <inspiration_ids>  (588) 
[116, 146]

>  <energy_score>  (588) 
-23.75304652124521

>  <distance_score>  (588) 
8.28468341195154

>  <path>  (588) 
/opt/xchem-fragalysis-2/maxwin/BulkDock/SCRATCH/511023/C46561-P116/C46561-P116.minimised.mol

>  <scratch_subdir>  (588) 
/opt/xchem-fragalysis-2/maxwin/BulkDock/SCRATCH/511023/C46561-P116

>  <fragmenstein_runtime>  (588) 
21.443904399871826

>  <fragmenstein_outcome>  (588) 
too moved

>  <fragmenstein_mode>  (588) 
expansion

>  <fragmenstein_error>  (588) 


$$$$
C46561-P146
     RDKit          3D

 35 37  0  0  0  0  0  0  0  0999 V2000
    6.8872   -5.3246   26.9675 C   0  0  0  0  0  0  0  0  0  0  0  0
    6.2872   -6.1867   25.9350 C   0  0  0  0  0  0  0  0  0  0  0  0
    5.5544   -7.2924   26.2867 N   0  0  0  0  0  0  0  0  0  0  0  0
    5.0317   -7.8204   25.1591 C   0  0  0  0  0  0  0  0  0  0  0  0
    5.4497   -7.1531   24.1140 N   0  0  0  0  0  0  0  0  0  0  0  0
    6.2808   -6.1421   24.5402 C   0  0  0  0  0  0  0  0  0  0  0  0
    6.8243   -5.0670   23.6009 C   0  0  0  0  0  0  0  0  0  0  0  0
    6.7351   -3.9324   24.0057 O   0  0  0  0  0  0  0  0  0  0  0  0
    7.4648   -5.6245   22.3122 N   0  0  0  0  0  0  0  0  0  0  0  0
    8.5065   -4.7362   20.8741 C   0  0  0  0  0  0  0  0  0  0  0  0
   10.6102   -5.2480   20.8833 C   0  0  0  0  0  0  0  0  0  0  0  0
   11.7399   -4.4135   21.8072 C   0  0  0  0  0  0  0  0  0  0  0  0
   13.1373   -4.1160   21.6603 C   0  0  0  0  0  0  0  0  0  0  0  0
   13.6424   -4.3463   20.4362 C   0  0  0  0  0  0  0  0  0  0  0  0
   12.8132   -5.0245   19.5951 C   0  0  0  0  0  0  0  0  0  0  0  0
   11.5033   -5.6292   20.0377 C   0  0  0  0  0  0  0  0  0  0  0  0
   13.2925   -4.7364   18.1780 C   0  0  0  0  0  0  0  0  0  0  0  0
   14.3771   -3.7256   18.2982 N   0  0  0  0  0  0  0  0  0  0  0  0
   14.8148   -3.7960   19.7152 C   0  0  0  0  0  0  0  0  0  0  0  0
    7.9770   -5.3112   26.8662 H   0  0  0  0  0  0  0  0  0  0  0  0
    6.6491   -5.6674   27.9798 H   0  0  0  0  0  0  0  0  0  0  0  0
    6.5221   -4.2974   26.8687 H   0  0  0  0  0  0  0  0  0  0  0  0
    5.4438   -7.6395   27.2251 H   0  0  0  0  0  0  0  0  0  0  0  0
    4.3927   -8.6919   25.1209 H   0  0  0  0  0  0  0  0  0  0  0  0
    7.2799   -6.6248   22.2509 H   0  0  0  0  0  0  0  0  0  0  0  0
    7.8421   -4.8664   20.0549 H   0  0  0  0  0  0  0  0  0  0  0  0
    8.2651   -3.7121   21.1164 H   0  0  0  0  0  0  0  0  0  0  0  0
   11.4443   -3.9480   22.7607 H   0  0  0  0  0  0  0  0  0  0  0  0
   13.6542   -3.5268   22.4108 H   0  0  0  0  0  0  0  0  0  0  0  0
   10.5349   -5.8126   19.4953 H   0  0  0  0  0  0  0  0  0  0  0  0
   12.4878   -4.3326   17.5561 H   0  0  0  0  0  0  0  0  0  0  0  0
   13.7123   -5.6144   17.6858 H   0  0  0  0  0  0  0  0  0  0  0  0
   13.9403   -2.8154   18.1753 H   0  0  0  0  0  0  0  0  0  0  0  0
   15.6753   -4.4661   19.8112 H   0  0  0  0  0  0  0  0  0  0  0  0
   15.0898   -2.7989   20.0728 H   0  0  0  0  0  0  0  0  0  0  0  0
  1  2  1  0
  2  3  1  0
  3  4  1  0
  4  5  2  0
  5  6  1  0
  6  7  1  0
  7  8  2  0
  7  9  1  0
  9 10  1  0
 10 11  1  0
 11 12  2  0
 12 13  1  0
 13 14  2  0
 14 15  1  0
 15 16  2  0
 15 17  1  0
 17 18  1  0
 18 19  1  0
  6  2  2  0
 16 11  1  0
 19 14  1  0
  1 20  1  0
  1 21  1  0
  1 22  1  0
  3 23  1  0
  4 24  1  0
  9 25  1  0
 10 26  1  0
 10 27  1  0
 12 28  1  0
 13 29  1  0
 16 30  1  0
 17 31  1  0
 17 32  1  0
 18 33  1  0
 19 34  1  0
 19 35  1  0
M  END
>  <Energy>  (589) 
389.658099810755

>  <compound_id>  (589) 
46561

>  <target_id>  (589) 
1

>  <reference_id>  (589) 
146

>  <inspiration_ids>  (589) 
[116, 146]

>  <energy_score>  (589) 
330.78371795923675

>  <distance_score>  (589) 
7.3567301720174685

>  <path>  (589) 
/opt/xchem-fragalysis-2/maxwin/BulkDock/SCRATCH/511023/C46561-P146/C46561-P146.minimised.mol

>  <scratch_subdir>  (589) 
/opt/xchem-fragalysis-2/maxwin/BulkDock/SCRATCH/511023/C46561-P146

>  <fragmenstein_runtime>  (589) 
26.70662760734558

>  <fragmenstein_outcome>  (589) 
too moved

>  <fragmenstein_mode>  (589) 
expansion

>  <fragmenstein_error>  (589) 


$$$$
C46562-P116
     RDKit          3D

 38 40  0  0  0  0  0  0  0  0999 V2000
   -1.5930   -7.2608   20.4070 C   0  0  0  0  0  0  0  0  0  0  0  0
   -1.0584   -8.4121   19.6389 C   0  0  0  0  0  0  0  0  0  0  0  0
    0.0674   -8.4416   18.9507 N   0  0  0  0  0  0  0  0  0  0  0  0
    0.1016   -9.6747   18.3153 C   0  0  0  0  0  0  0  0  0  0  0  0
    1.2010  -10.1284   17.4199 C   0  0  0  0  0  0  0  0  0  0  0  0
    1.2048  -11.2723   17.0721 O   0  0  0  0  0  0  0  0  0  0  0  0
    2.1513   -9.0814   17.1996 N   0  0  0  0  0  0  0  0  0  0  0  0
    3.4560   -9.1008   16.5732 C   0  0  0  0  0  0  0  0  0  0  0  0
    3.7120   -8.2576   15.3481 C   0  0  0  0  0  0  0  0  0  0  0  0
    3.2118   -6.9674   15.1906 C   0  0  0  0  0  0  0  0  0  0  0  0
    3.4063   -6.2829   13.9837 C   0  0  0  0  0  0  0  0  0  0  0  0
    4.1399   -6.8544   12.9275 C   0  0  0  0  0  0  0  0  0  0  0  0
    4.7702   -8.0837   13.1368 C   0  0  0  0  0  0  0  0  0  0  0  0
    4.5400   -8.7773   14.3316 C   0  0  0  0  0  0  0  0  0  0  0  0
    5.5688   -8.7189   12.0323 C   0  0  0  0  0  0  0  0  0  0  0  0
    6.0249   -7.6942   10.9949 C   0  0  0  0  0  0  0  0  0  0  0  0
    4.9077   -6.8751   10.5178 N   0  0  0  0  0  0  0  0  0  0  0  0
    4.2422   -6.1336   11.5998 C   0  0  0  0  0  0  0  0  0  0  0  0
   -0.9908  -10.4210   18.7244 C   0  0  0  0  0  0  0  0  0  0  0  0
   -1.7336   -9.6019   19.5263 N   0  0  0  0  0  0  0  0  0  0  0  0
   -2.3802   -7.5703   21.1016 H   0  0  0  0  0  0  0  0  0  0  0  0
   -0.7933   -6.7888   20.9861 H   0  0  0  0  0  0  0  0  0  0  0  0
   -2.0100   -6.5149   19.7238 H   0  0  0  0  0  0  0  0  0  0  0  0
    1.8584   -8.2554   17.7149 H   0  0  0  0  0  0  0  0  0  0  0  0
    3.6664  -10.1502   16.3370 H   0  0  0  0  0  0  0  0  0  0  0  0
    4.1725   -8.7825   17.3316 H   0  0  0  0  0  0  0  0  0  0  0  0
    2.6104   -6.5091   15.9721 H   0  0  0  0  0  0  0  0  0  0  0  0
    2.9467   -5.3042   13.8560 H   0  0  0  0  0  0  0  0  0  0  0  0
    4.9571   -9.7781   14.4446 H   0  0  0  0  0  0  0  0  0  0  0  0
    4.9350   -9.4715   11.5453 H   0  0  0  0  0  0  0  0  0  0  0  0
    6.4322   -9.2462   12.4478 H   0  0  0  0  0  0  0  0  0  0  0  0
    6.8204   -7.0754   11.4041 H   0  0  0  0  0  0  0  0  0  0  0  0
    6.4637   -8.2208   10.1397 H   0  0  0  0  0  0  0  0  0  0  0  0
    4.2124   -7.5018   10.1109 H   0  0  0  0  0  0  0  0  0  0  0  0
    3.2234   -5.9107   11.2574 H   0  0  0  0  0  0  0  0  0  0  0  0
    4.7253   -5.1636   11.7259 H   0  0  0  0  0  0  0  0  0  0  0  0
   -1.3030  -11.4254   18.4728 H   0  0  0  0  0  0  0  0  0  0  0  0
   -2.6449   -9.8099   19.9180 H   0  0  0  0  0  0  0  0  0  0  0  0
  1  2  1  0
  2  3  2  0
  3  4  1  0
  4  5  1  0
  5  6  2  0
  5  7  1  0
  7  8  1  0
  8  9  1  0
  9 10  2  0
 10 11  1  0
 11 12  2  0
 12 13  1  0
 13 14  2  0
 13 15  1  0
 15 16  1  0
 16 17  1  0
 17 18  1  0
  4 19  2  0
 19 20  1  0
 20  2  1  0
 14  9  1  0
 18 12  1  0
  1 21  1  0
  1 22  1  0
  1 23  1  0
  7 24  1  0
  8 25  1  0
  8 26  1  0
 10 27  1  0
 11 28  1  0
 14 29  1  0
 15 30  1  0
 15 31  1  0
 16 32  1  0
 16 33  1  0
 17 34  1  0
 18 35  1  0
 18 36  1  0
 19 37  1  0
 20 38  1  0
M  END
>  <Energy>  (590) 
45.259268544459985

>  <compound_id>  (590) 
46562

>  <target_id>  (590) 
1

>  <reference_id>  (590) 
116

>  <inspiration_ids>  (590) 
[116, 146]

>  <energy_score>  (590) 
-15.482128698252154

>  <distance_score>  (590) 
10.899777394842218

>  <path>  (590) 
/opt/xchem-fragalysis-2/maxwin/BulkDock/SCRATCH/511023/C46562-P116/C46562-P116.minimised.mol

>  <scratch_subdir>  (590) 
/opt/xchem-fragalysis-2/maxwin/BulkDock/SCRATCH/511023/C46562-P116

>  <fragmenstein_runtime>  (590) 
15.218009233474731

>  <fragmenstein_outcome>  (590) 
too moved

>  <fragmenstein_mode>  (590) 
expansion

>  <fragmenstein_error>  (590) 


$$$$
C46562-P146
     RDKit          3D

 38 40  0  0  0  0  0  0  0  0999 V2000
    1.3111   -5.2123   30.2215 C   0  0  0  0  0  0  0  0  0  0  0  0
    2.2974   -5.2974   29.1182 C   0  0  0  0  0  0  0  0  0  0  0  0
    3.1258   -6.2875   28.8640 N   0  0  0  0  0  0  0  0  0  0  0  0
    3.9065   -5.8864   27.8054 C   0  0  0  0  0  0  0  0  0  0  0  0
    5.0457   -6.6748   27.3082 C   0  0  0  0  0  0  0  0  0  0  0  0
    5.9249   -6.9584   28.0627 O   0  0  0  0  0  0  0  0  0  0  0  0
    4.9024   -6.9161   25.9183 N   0  0  0  0  0  0  0  0  0  0  0  0
    5.8167   -7.4965   24.9527 C   0  0  0  0  0  0  0  0  0  0  0  0
    6.6199   -6.4166   24.2588 C   0  0  0  0  0  0  0  0  0  0  0  0
    6.5790   -5.1969   24.8113 C   0  0  0  0  0  0  0  0  0  0  0  0
    6.6820   -4.2282   23.8691 C   0  0  0  0  0  0  0  0  0  0  0  0
    7.3946   -4.4031   22.5005 C   0  0  0  0  0  0  0  0  0  0  0  0
    7.9157   -5.4055   21.9155 C   0  0  0  0  0  0  0  0  0  0  0  0
    7.2155   -6.4565   22.9295 C   0  0  0  0  0  0  0  0  0  0  0  0
    9.7589   -5.4475   20.6834 C   0  0  0  0  0  0  0  0  0  0  0  0
   11.1041   -4.1425   21.1055 C   0  0  0  0  0  0  0  0  0  0  0  0
    9.2330   -3.5452   20.6156 N   0  0  0  0  0  0  0  0  0  0  0  0
    7.7699   -3.8210   21.1628 C   0  0  0  0  0  0  0  0  0  0  0  0
    3.4457   -4.6766   27.3291 C   0  0  0  0  0  0  0  0  0  0  0  0
    2.4438   -4.3048   28.1837 N   0  0  0  0  0  0  0  0  0  0  0  0
    0.4104   -4.6749   29.9089 H   0  0  0  0  0  0  0  0  0  0  0  0
    1.0121   -6.2140   30.5452 H   0  0  0  0  0  0  0  0  0  0  0  0
    1.7477   -4.6905   31.0783 H   0  0  0  0  0  0  0  0  0  0  0  0
    4.0631   -6.4595   25.5899 H   0  0  0  0  0  0  0  0  0  0  0  0
    5.1151   -7.9643   24.2671 H   0  0  0  0  0  0  0  0  0  0  0  0
    6.4721   -8.2132   25.4526 H   0  0  0  0  0  0  0  0  0  0  0  0
    6.2293   -4.9471   25.7982 H   0  0  0  0  0  0  0  0  0  0  0  0
    6.2709   -3.3043   24.2479 H   0  0  0  0  0  0  0  0  0  0  0  0
    6.7900   -7.2515   22.3570 H   0  0  0  0  0  0  0  0  0  0  0  0
   10.5388   -6.2445   20.8139 H   0  0  0  0  0  0  0  0  0  0  0  0
    9.6304   -5.6692   19.6049 H   0  0  0  0  0  0  0  0  0  0  0  0
   11.3883   -3.9309   22.1545 H   0  0  0  0  0  0  0  0  0  0  0  0
   11.9981   -4.2354   20.4439 H   0  0  0  0  0  0  0  0  0  0  0  0
    9.0241   -4.1286   19.8034 H   0  0  0  0  0  0  0  0  0  0  0  0
    7.4401   -4.5022   20.2891 H   0  0  0  0  0  0  0  0  0  0  0  0
    6.9297   -3.1147   21.0176 H   0  0  0  0  0  0  0  0  0  0  0  0
    3.7740   -4.0391   26.5202 H   0  0  0  0  0  0  0  0  0  0  0  0
    1.9084   -3.4475   28.1444 H   0  0  0  0  0  0  0  0  0  0  0  0
  1  2  1  0
  2  3  2  0
  3  4  1  0
  4  5  1  0
  5  6  2  0
  5  7  1  0
  7  8  1  0
  8  9  1  0
  9 10  2  0
 10 11  1  0
 11 12  2  0
 12 13  1  0
 13 14  2  0
 13 15  1  0
 15 16  1  0
 16 17  1  0
 17 18  1  0
  4 19  2  0
 19 20  1  0
 20  2  1  0
 14  9  1  0
 18 12  1  0
  1 21  1  0
  1 22  1  0
  1 23  1  0
  7 24  1  0
  8 25  1  0
  8 26  1  0
 10 27  1  0
 11 28  1  0
 14 29  1  0
 15 30  1  0
 15 31  1  0
 16 32  1  0
 16 33  1  0
 17 34  1  0
 18 35  1  0
 18 36  1  0
 19 37  1  0
 20 38  1  0
M  END
>  <Energy>  (591) 
661.74479273771942

>  <compound_id>  (591) 
46562

>  <target_id>  (591) 
1

>  <reference_id>  (591) 
146

>  <inspiration_ids>  (591) 
[116, 146]

>  <energy_score>  (591) 
601.0033954949811

>  <distance_score>  (591) 
9.369534439380384

>  <path>  (591) 
/opt/xchem-fragalysis-2/maxwin/BulkDock/SCRATCH/511023/C46562-P146/C46562-P146.minimised.mol

>  <scratch_subdir>  (591) 
/opt/xchem-fragalysis-2/maxwin/BulkDock/SCRATCH/511023/C46562-P146

>  <fragmenstein_runtime>  (591) 
34.278560161590576

>  <fragmenstein_outcome>  (591) 
too moved

>  <fragmenstein_mode>  (591) 
expansion

>  <fragmenstein_error>  (591) 


$$$$
C46563-P116
     RDKit          3D

 41 43  0  0  0  0  0  0  0  0999 V2000
   11.6634   -9.5710   21.5771 O   0  0  0  0  0  0  0  0  0  0  0  0
   10.9705   -8.7055   21.0713 C   0  0  0  0  0  0  0  0  0  0  0  0
    9.9033   -8.9081   19.6744 N   0  0  0  0  0  0  0  0  0  0  0  0
    9.6630  -10.2981   18.6086 C   0  0  0  0  0  0  0  0  0  0  0  0
   10.7287  -11.0804   18.3670 N   0  0  0  0  0  0  0  0  0  0  0  0
   10.6380  -11.4327   17.0446 C   0  0  0  0  0  0  0  0  0  0  0  0
    9.4522  -10.9742   16.5126 C   0  0  0  0  0  0  0  0  0  0  0  0
    8.6662  -10.8033   17.6758 N   0  0  0  0  0  0  0  0  0  0  0  0
    7.9149  -12.0857   17.8886 C   0  0  0  0  0  0  0  0  0  0  0  0
    6.4953  -11.9774   18.3419 C   0  0  0  0  0  0  0  0  0  0  0  0
    5.8993  -13.1888   18.1748 F   0  0  0  0  0  0  0  0  0  0  0  0
    6.4565  -11.7065   19.6646 F   0  0  0  0  0  0  0  0  0  0  0  0
   11.2769   -7.2968   21.7685 C   0  0  0  0  0  0  0  0  0  0  0  0
   11.2353   -6.0774   21.0900 C   0  0  0  0  0  0  0  0  0  0  0  0
   12.3669   -5.2719   20.8360 C   0  0  0  0  0  0  0  0  0  0  0  0
   13.6088   -5.5884   21.3154 C   0  0  0  0  0  0  0  0  0  0  0  0
   13.6483   -6.5749   22.2867 C   0  0  0  0  0  0  0  0  0  0  0  0
   12.4858   -7.3854   22.5291 C   0  0  0  0  0  0  0  0  0  0  0  0
   14.9547   -6.8609   22.9754 C   0  0  0  0  0  0  0  0  0  0  0  0
   15.6198   -5.6028   23.5485 C   0  0  0  0  0  0  0  0  0  0  0  0
   16.3584   -4.7254   22.5378 C   0  0  0  0  0  0  0  0  0  0  0  0
   15.4977   -4.0122   21.5949 N   0  0  0  0  0  0  0  0  0  0  0  0
   14.8143   -4.9308   20.6963 C   0  0  0  0  0  0  0  0  0  0  0  0
    9.3997   -8.0809   19.5293 H   0  0  0  0  0  0  0  0  0  0  0  0
   11.4439  -11.9475   16.5372 H   0  0  0  0  0  0  0  0  0  0  0  0
    9.0078  -11.0694   15.5310 H   0  0  0  0  0  0  0  0  0  0  0  0
    8.4988  -12.7228   18.5609 H   0  0  0  0  0  0  0  0  0  0  0  0
    7.8945  -12.6164   16.9256 H   0  0  0  0  0  0  0  0  0  0  0  0
    5.9610  -11.2362   17.7517 H   0  0  0  0  0  0  0  0  0  0  0  0
   10.3603   -5.7869   20.5325 H   0  0  0  0  0  0  0  0  0  0  0  0
   12.3220   -4.4460   20.1387 H   0  0  0  0  0  0  0  0  0  0  0  0
   12.6292   -8.2557   23.1759 H   0  0  0  0  0  0  0  0  0  0  0  0
   15.6295   -7.3857   22.2885 H   0  0  0  0  0  0  0  0  0  0  0  0
   14.7679   -7.5450   23.8129 H   0  0  0  0  0  0  0  0  0  0  0  0
   14.8877   -5.0013   24.1032 H   0  0  0  0  0  0  0  0  0  0  0  0
   16.3628   -5.9334   24.2864 H   0  0  0  0  0  0  0  0  0  0  0  0
   16.9154   -3.9676   23.1023 H   0  0  0  0  0  0  0  0  0  0  0  0
   17.1109   -5.3160   22.0003 H   0  0  0  0  0  0  0  0  0  0  0  0
   16.0852   -3.3977   21.0339 H   0  0  0  0  0  0  0  0  0  0  0  0
   14.5002   -4.3532   19.8172 H   0  0  0  0  0  0  0  0  0  0  0  0
   15.4926   -5.6959   20.2958 H   0  0  0  0  0  0  0  0  0  0  0  0
  1  2  2  0
  2  3  1  0
  3  4  1  0
  4  5  2  0
  5  6  1  0
  6  7  2  0
  7  8  1  0
  8  9  1  0
  9 10  1  0
 10 11  1  0
 10 12  1  0
  2 13  1  0
 13 14  2  0
 14 15  1  0
 15 16  2  0
 16 17  1  0
 17 18  2  0
 17 19  1  0
 19 20  1  0
 20 21  1  0
 21 22  1  0
 22 23  1  0
  8  4  1  0
 18 13  1  0
 23 16  1  0
  3 24  1  0
  6 25  1  0
  7 26  1  0
  9 27  1  0
  9 28  1  0
 10 29  1  0
 14 30  1  0
 15 31  1  0
 18 32  1  0
 19 33  1  0
 19 34  1  0
 20 35  1  0
 20 36  1  0
 21 37  1  0
 21 38  1  0
 22 39  1  0
 23 40  1  0
 23 41  1  0
M  END
>  <Energy>  (592) 
217.5177501935346

>  <compound_id>  (592) 
46563

>  <target_id>  (592) 
1

>  <reference_id>  (592) 
116

>  <inspiration_ids>  (592) 
[116, 146]

>  <energy_score>  (592) 
21.865037722827935

>  <distance_score>  (592) 
11.503664445380656

>  <path>  (592) 
/opt/xchem-fragalysis-2/maxwin/BulkDock/SCRATCH/511023/C46563-P116/C46563-P116.minimised.mol

>  <scratch_subdir>  (592) 
/opt/xchem-fragalysis-2/maxwin/BulkDock/SCRATCH/511023/C46563-P116

>  <fragmenstein_runtime>  (592) 
22.332032918930054

>  <fragmenstein_outcome>  (592) 
too moved

>  <fragmenstein_mode>  (592) 
expansion

>  <fragmenstein_error>  (592) 


$$$$
C46563-P146
     RDKit          3D

 41 43  0  0  0  0  0  0  0  0999 V2000
    3.0217  -10.3275   17.8912 O   0  0  0  0  0  0  0  0  0  0  0  0
    2.6817   -9.3439   18.5033 C   0  0  0  0  0  0  0  0  0  0  0  0
    1.5315   -9.4689   20.0234 N   0  0  0  0  0  0  0  0  0  0  0  0
    0.8975  -10.8900   20.9383 C   0  0  0  0  0  0  0  0  0  0  0  0
    1.7199  -11.8846   22.1187 N   0  0  0  0  0  0  0  0  0  0  0  0
    3.0166  -12.1217   22.9011 C   0  0  0  0  0  0  0  0  0  0  0  0
    2.6024  -11.0319   23.4627 C   0  0  0  0  0  0  0  0  0  0  0  0
    1.0084  -11.3968   22.6937 N   0  0  0  0  0  0  0  0  0  0  0  0
    0.1502  -11.5333   23.8382 C   0  0  0  0  0  0  0  0  0  0  0  0
   -1.4229  -10.3471   24.6830 C   0  0  0  0  0  0  0  0  0  0  0  0
   -2.4504   -9.9497   23.8379 F   0  0  0  0  0  0  0  0  0  0  0  0
   -1.5312   -9.9421   25.9123 F   0  0  0  0  0  0  0  0  0  0  0  0
    3.7218   -7.7229   17.8148 C   0  0  0  0  0  0  0  0  0  0  0  0
    5.1712   -7.3543   18.2828 C   0  0  0  0  0  0  0  0  0  0  0  0
    6.5468   -6.4063   17.5828 C   0  0  0  0  0  0  0  0  0  0  0  0
    6.7990   -5.5663   16.2747 C   0  0  0  0  0  0  0  0  0  0  0  0
    5.4620   -5.4890   15.8742 C   0  0  0  0  0  0  0  0  0  0  0  0
    4.5736   -6.5259   16.7296 C   0  0  0  0  0  0  0  0  0  0  0  0
    4.6763   -4.2384   15.3463 C   0  0  0  0  0  0  0  0  0  0  0  0
    5.1232   -3.1338   14.3636 C   0  0  0  0  0  0  0  0  0  0  0  0
    6.4443   -2.3489   14.4869 C   0  0  0  0  0  0  0  0  0  0  0  0
    7.7152   -2.8229   15.0398 N   0  0  0  0  0  0  0  0  0  0  0  0
    8.1181   -4.2165   15.6158 C   0  0  0  0  0  0  0  0  0  0  0  0
    1.2811   -8.5211   20.3398 H   0  0  0  0  0  0  0  0  0  0  0  0
    3.3643  -13.0545   23.3041 H   0  0  0  0  0  0  0  0  0  0  0  0
    2.5519  -10.6741   24.4759 H   0  0  0  0  0  0  0  0  0  0  0  0
    0.9581  -11.8725   24.5192 H   0  0  0  0  0  0  0  0  0  0  0  0
   -0.1503  -12.6071   23.7952 H   0  0  0  0  0  0  0  0  0  0  0  0
   -1.9777  -11.4986   24.9451 H   0  0  0  0  0  0  0  0  0  0  0  0
    5.5667   -7.9808   19.0573 H   0  0  0  0  0  0  0  0  0  0  0  0
    6.4756   -7.1570   16.7634 H   0  0  0  0  0  0  0  0  0  0  0  0
    4.7621   -5.5924   17.4782 H   0  0  0  0  0  0  0  0  0  0  0  0
    3.7747   -4.6653   14.8809 H   0  0  0  0  0  0  0  0  0  0  0  0
    4.3200   -3.6898   16.2225 H   0  0  0  0  0  0  0  0  0  0  0  0
    4.9837   -3.5037   13.3430 H   0  0  0  0  0  0  0  0  0  0  0  0
    4.3306   -2.3697   14.4166 H   0  0  0  0  0  0  0  0  0  0  0  0
    6.6603   -1.9299   13.4948 H   0  0  0  0  0  0  0  0  0  0  0  0
    6.2098   -1.4179   15.0175 H   0  0  0  0  0  0  0  0  0  0  0  0
    8.4772   -2.4469   14.4630 H   0  0  0  0  0  0  0  0  0  0  0  0
    8.5169   -4.8363   14.7799 H   0  0  0  0  0  0  0  0  0  0  0  0
    9.2155   -4.0861   15.5250 H   0  0  0  0  0  0  0  0  0  0  0  0
  1  2  2  0
  2  3  1  0
  3  4  1  0
  4  5  2  0
  5  6  1  0
  6  7  2  0
  7  8  1  0
  8  9  1  0
  9 10  1  0
 10 11  1  0
 10 12  1  0
  2 13  1  0
 13 14  2  0
 14 15  1  0
 15 16  2  0
 16 17  1  0
 17 18  2  0
 17 19  1  0
 19 20  1  0
 20 21  1  0
 21 22  1  0
 22 23  1  0
  8  4  1  0
 18 13  1  0
 23 16  1  0
  3 24  1  0
  6 25  1  0
  7 26  1  0
  9 27  1  0
  9 28  1  0
 10 29  1  0
 14 30  1  0
 15 31  1  0
 18 32  1  0
 19 33  1  0
 19 34  1  0
 20 35  1  0
 20 36  1  0
 21 37  1  0
 21 38  1  0
 22 39  1  0
 23 40  1  0
 23 41  1  0
M  END
>  <Energy>  (593) 
1482.6539343685404

>  <compound_id>  (593) 
46563

>  <target_id>  (593) 
1

>  <reference_id>  (593) 
146

>  <inspiration_ids>  (593) 
[116, 146]

>  <energy_score>  (593) 
1287.0012218978327

>  <distance_score>  (593) 
8.300255707405983

>  <path>  (593) 
/opt/xchem-fragalysis-2/maxwin/BulkDock/SCRATCH/511023/C46563-P146/C46563-P146.minimised.mol

>  <scratch_subdir>  (593) 
/opt/xchem-fragalysis-2/maxwin/BulkDock/SCRATCH/511023/C46563-P146

>  <fragmenstein_runtime>  (593) 
12.78996729850769

>  <fragmenstein_outcome>  (593) 
too moved

>  <fragmenstein_mode>  (593) 
expansion

>  <fragmenstein_error>  (593) 


$$$$
C46564-P116
     RDKit          3D

 38 40  0  0  0  0  0  0  0  0999 V2000
    6.9754   -3.9833   22.5696 O   0  0  0  0  0  0  0  0  0  0  0  0
    7.3055   -3.3300   21.6154 C   0  0  0  0  0  0  0  0  0  0  0  0
    6.6142   -1.9104   21.2268 N   0  0  0  0  0  0  0  0  0  0  0  0
    5.5554   -1.2447   21.7627 C   0  0  0  0  0  0  0  0  0  0  0  0
    4.7284   -0.5198   21.0484 N   0  0  0  0  0  0  0  0  0  0  0  0
    3.6734   -0.2186   21.8673 C   0  0  0  0  0  0  0  0  0  0  0  0
    3.9177   -0.6501   23.1426 C   0  0  0  0  0  0  0  0  0  0  0  0
    5.1223   -1.3070   23.0789 N   0  0  0  0  0  0  0  0  0  0  0  0
    5.8280   -1.7203   24.2765 C   0  0  0  0  0  0  0  0  0  0  0  0
    7.0517   -0.8839   24.5647 C   0  0  0  0  0  0  0  0  0  0  0  0
    7.3689   -0.9972   25.8816 F   0  0  0  0  0  0  0  0  0  0  0  0
    8.1147   -1.3722   23.8786 F   0  0  0  0  0  0  0  0  0  0  0  0
    8.8946   -4.0423   20.6108 C   0  0  0  0  0  0  0  0  0  0  0  0
   10.0675   -5.4186   20.5728 C   0  0  0  0  0  0  0  0  0  0  0  0
   11.6995   -5.3376   20.5611 C   0  0  0  0  0  0  0  0  0  0  0  0
   11.8997   -4.9657   21.8272 C   0  0  0  0  0  0  0  0  0  0  0  0
   10.9229   -3.5915   21.7820 S   0  0  0  0  0  0  0  0  0  0  0  0
   13.1756   -4.9249   22.6160 C   0  0  0  0  0  0  0  0  0  0  0  0
   14.4282   -5.1795   21.7681 C   0  0  0  0  0  0  0  0  0  0  0  0
   14.6884   -4.1499   20.6599 C   0  0  0  0  0  0  0  0  0  0  0  0
   13.5787   -3.8439   19.7645 N   0  0  0  0  0  0  0  0  0  0  0  0
   12.7433   -5.0187   19.4431 C   0  0  0  0  0  0  0  0  0  0  0  0
    6.9909   -1.6046   20.3563 H   0  0  0  0  0  0  0  0  0  0  0  0
    2.8239    0.3454   21.5034 H   0  0  0  0  0  0  0  0  0  0  0  0
    3.3771   -0.4922   24.0631 H   0  0  0  0  0  0  0  0  0  0  0  0
    6.0669   -2.7781   24.2170 H   0  0  0  0  0  0  0  0  0  0  0  0
    5.1286   -1.6216   25.1160 H   0  0  0  0  0  0  0  0  0  0  0  0
    6.9293    0.1767   24.3272 H   0  0  0  0  0  0  0  0  0  0  0  0
    9.7927   -5.8726   19.6470 H   0  0  0  0  0  0  0  0  0  0  0  0
   13.2909   -3.9699   23.1439 H   0  0  0  0  0  0  0  0  0  0  0  0
   13.1142   -5.6998   23.3904 H   0  0  0  0  0  0  0  0  0  0  0  0
   15.2990   -5.1857   22.4364 H   0  0  0  0  0  0  0  0  0  0  0  0
   14.3825   -6.1882   21.3375 H   0  0  0  0  0  0  0  0  0  0  0  0
   15.5366   -4.5078   20.0630 H   0  0  0  0  0  0  0  0  0  0  0  0
   15.0129   -3.2091   21.1195 H   0  0  0  0  0  0  0  0  0  0  0  0
   13.9573   -3.4868   18.8899 H   0  0  0  0  0  0  0  0  0  0  0  0
   13.4099   -5.8581   19.2629 H   0  0  0  0  0  0  0  0  0  0  0  0
   12.2431   -4.7568   18.5068 H   0  0  0  0  0  0  0  0  0  0  0  0
  1  2  2  0
  2  3  1  0
  3  4  1  0
  4  5  2  0
  5  6  1  0
  6  7  2  0
  7  8  1  0
  8  9  1  0
  9 10  1  0
 10 11  1  0
 10 12  1  0
  2 13  1  0
 13 14  2  0
 14 15  1  0
 15 16  2  0
 16 17  1  0
 16 18  1  0
 18 19  1  0
 19 20  1  0
 20 21  1  0
 21 22  1  0
  8  4  1  0
 17 13  1  0
 22 15  1  0
  3 23  1  0
  6 24  1  0
  7 25  1  0
  9 26  1  0
  9 27  1  0
 10 28  1  0
 14 29  1  0
 18 30  1  0
 18 31  1  0
 19 32  1  0
 19 33  1  0
 20 34  1  0
 20 35  1  0
 21 36  1  0
 22 37  1  0
 22 38  1  0
M  END
>  <Energy>  (594) 
356.43818621981524

>  <compound_id>  (594) 
46564

>  <target_id>  (594) 
1

>  <reference_id>  (594) 
116

>  <inspiration_ids>  (594) 
[116, 146]

>  <energy_score>  (594) 
318.69172373237467

>  <distance_score>  (594) 
10.306889799483589

>  <path>  (594) 
/opt/xchem-fragalysis-2/maxwin/BulkDock/SCRATCH/511023/C46564-P116/C46564-P116.minimised.mol

>  <scratch_subdir>  (594) 
/opt/xchem-fragalysis-2/maxwin/BulkDock/SCRATCH/511023/C46564-P116

>  <fragmenstein_runtime>  (594) 
16.698939085006714

>  <fragmenstein_outcome>  (594) 
too moved

>  <fragmenstein_mode>  (594) 
expansion

>  <fragmenstein_error>  (594) 


$$$$
C46564-P146
     RDKit          3D

 38 40  0  0  0  0  0  0  0  0999 V2000
    9.5305   -8.7894   19.9282 O   0  0  0  0  0  0  0  0  0  0  0  0
    8.9835   -7.6302   20.0241 C   0  0  0  0  0  0  0  0  0  0  0  0
    7.2374   -6.9233   21.1133 N   0  0  0  0  0  0  0  0  0  0  0  0
    6.3832   -7.4980   22.0894 C   0  0  0  0  0  0  0  0  0  0  0  0
    7.3214   -7.2791   23.2768 N   0  0  0  0  0  0  0  0  0  0  0  0
    7.1900   -6.3540   24.2699 C   0  0  0  0  0  0  0  0  0  0  0  0
    5.9128   -6.0307   24.2526 C   0  0  0  0  0  0  0  0  0  0  0  0
    5.4168   -7.1337   23.4868 N   0  0  0  0  0  0  0  0  0  0  0  0
    4.9179   -8.1005   24.5241 C   0  0  0  0  0  0  0  0  0  0  0  0
    3.8323   -9.0903   24.3006 C   0  0  0  0  0  0  0  0  0  0  0  0
    3.1712   -9.1496   25.5001 F   0  0  0  0  0  0  0  0  0  0  0  0
    4.2878  -10.3352   24.0643 F   0  0  0  0  0  0  0  0  0  0  0  0
    9.9315   -5.9754   19.2519 C   0  0  0  0  0  0  0  0  0  0  0  0
   11.3792   -5.6741   20.2399 C   0  0  0  0  0  0  0  0  0  0  0  0
   12.6947   -4.9354   19.7546 C   0  0  0  0  0  0  0  0  0  0  0  0
   12.6838   -4.5543   18.4196 C   0  0  0  0  0  0  0  0  0  0  0  0
   11.2228   -4.8673   17.4947 S   0  0  0  0  0  0  0  0  0  0  0  0
   13.7888   -3.9128   17.6004 C   0  0  0  0  0  0  0  0  0  0  0  0
   14.7869   -3.1114   18.4194 C   0  0  0  0  0  0  0  0  0  0  0  0
   15.7264   -3.9829   19.2453 C   0  0  0  0  0  0  0  0  0  0  0  0
   15.1262   -5.0707   20.0095 N   0  0  0  0  0  0  0  0  0  0  0  0
   13.8678   -4.7407   20.6794 C   0  0  0  0  0  0  0  0  0  0  0  0
    7.1604   -5.9342   21.0180 H   0  0  0  0  0  0  0  0  0  0  0  0
    7.9601   -6.0868   24.9757 H   0  0  0  0  0  0  0  0  0  0  0  0
    5.3026   -5.4813   24.9566 H   0  0  0  0  0  0  0  0  0  0  0  0
    5.7805   -8.5615   25.0275 H   0  0  0  0  0  0  0  0  0  0  0  0
    4.4924   -7.4453   25.3027 H   0  0  0  0  0  0  0  0  0  0  0  0
    3.1159   -8.7991   23.5511 H   0  0  0  0  0  0  0  0  0  0  0  0
   11.5635   -6.3425   21.0517 H   0  0  0  0  0  0  0  0  0  0  0  0
   14.3093   -4.6948   17.0332 H   0  0  0  0  0  0  0  0  0  0  0  0
   13.3447   -3.2283   16.8655 H   0  0  0  0  0  0  0  0  0  0  0  0
   15.3968   -2.5033   17.7396 H   0  0  0  0  0  0  0  0  0  0  0  0
   14.2718   -2.4071   19.0790 H   0  0  0  0  0  0  0  0  0  0  0  0
   16.2802   -3.3365   19.9370 H   0  0  0  0  0  0  0  0  0  0  0  0
   16.4831   -4.4202   18.5824 H   0  0  0  0  0  0  0  0  0  0  0  0
   14.9767   -5.8802   19.4087 H   0  0  0  0  0  0  0  0  0  0  0  0
   13.7610   -5.4122   21.5381 H   0  0  0  0  0  0  0  0  0  0  0  0
   13.8747   -3.7231   21.0867 H   0  0  0  0  0  0  0  0  0  0  0  0
  1  2  2  0
  2  3  1  0
  3  4  1  0
  4  5  2  0
  5  6  1  0
  6  7  2  0
  7  8  1  0
  8  9  1  0
  9 10  1  0
 10 11  1  0
 10 12  1  0
  2 13  1  0
 13 14  2  0
 14 15  1  0
 15 16  2  0
 16 17  1  0
 16 18  1  0
 18 19  1  0
 19 20  1  0
 20 21  1  0
 21 22  1  0
  8  4  1  0
 17 13  1  0
 22 15  1  0
  3 23  1  0
  6 24  1  0
  7 25  1  0
  9 26  1  0
  9 27  1  0
 10 28  1  0
 14 29  1  0
 18 30  1  0
 18 31  1  0
 19 32  1  0
 19 33  1  0
 20 34  1  0
 20 35  1  0
 21 36  1  0
 22 37  1  0
 22 38  1  0
M  END
>  <Energy>  (595) 
787.50234701659383

>  <compound_id>  (595) 
46564

>  <target_id>  (595) 
1

>  <reference_id>  (595) 
146

>  <inspiration_ids>  (595) 
[116, 146]

>  <energy_score>  (595) 
749.755884529148

>  <distance_score>  (595) 
7.840670794342147

>  <path>  (595) 
/opt/xchem-fragalysis-2/maxwin/BulkDock/SCRATCH/511023/C46564-P146/C46564-P146.minimised.mol

>  <scratch_subdir>  (595) 
/opt/xchem-fragalysis-2/maxwin/BulkDock/SCRATCH/511023/C46564-P146

>  <fragmenstein_runtime>  (595) 
15.896303415298462

>  <fragmenstein_outcome>  (595) 
too moved

>  <fragmenstein_mode>  (595) 
expansion

>  <fragmenstein_error>  (595) 


$$$$
C46566-P116
     RDKit          3D

 39 42  0  0  0  0  0  0  0  0999 V2000
   12.1811   -5.5894   25.0769 O   0  0  0  0  0  0  0  0  0  0  0  0
   11.8965   -6.2648   24.1390 C   0  0  0  0  0  0  0  0  0  0  0  0
   10.8246   -7.4988   24.0102 N   0  0  0  0  0  0  0  0  0  0  0  0
    9.8470   -8.0410   25.0056 C   0  0  0  0  0  0  0  0  0  0  0  0
    8.9518   -8.9822   24.6053 N   0  0  0  0  0  0  0  0  0  0  0  0
    7.9433   -9.1678   25.5565 C   0  0  0  0  0  0  0  0  0  0  0  0
    8.1800   -8.3344   26.6080 C   0  0  0  0  0  0  0  0  0  0  0  0
    9.3315   -7.6318   26.2516 N   0  0  0  0  0  0  0  0  0  0  0  0
    9.9317   -6.5530   27.0671 C   0  0  0  0  0  0  0  0  0  0  0  0
    9.1976   -5.7871   28.1438 C   0  0  0  0  0  0  0  0  0  0  0  0
    9.5456   -5.1082   26.8546 C   0  0  0  0  0  0  0  0  0  0  0  0
   12.6651   -5.7743   22.6446 C   0  0  0  0  0  0  0  0  0  0  0  0
   11.9663   -6.0517   21.5003 C   0  0  0  0  0  0  0  0  0  0  0  0
   12.2423   -5.4160   20.2555 C   0  0  0  0  0  0  0  0  0  0  0  0
   13.2544   -4.5626   19.8725 C   0  0  0  0  0  0  0  0  0  0  0  0
   14.0362   -4.2035   20.9367 C   0  0  0  0  0  0  0  0  0  0  0  0
   13.7244   -4.7848   22.3200 C   0  0  0  0  0  0  0  0  0  0  0  0
   15.1532   -3.2292   20.5704 C   0  0  0  0  0  0  0  0  0  0  0  0
   14.9946   -2.5074   19.1851 C   0  0  0  0  0  0  0  0  0  0  0  0
   14.5716   -3.3775   18.0872 N   0  0  0  0  0  0  0  0  0  0  0  0
   13.2987   -3.9992   18.4571 C   0  0  0  0  0  0  0  0  0  0  0  0
   10.8880   -7.9102   23.0916 H   0  0  0  0  0  0  0  0  0  0  0  0
    7.1459   -9.8814   25.3984 H   0  0  0  0  0  0  0  0  0  0  0  0
    7.6628   -8.1525   27.5369 H   0  0  0  0  0  0  0  0  0  0  0  0
   10.9845   -6.7454   27.2617 H   0  0  0  0  0  0  0  0  0  0  0  0
    9.7546   -5.5020   29.0293 H   0  0  0  0  0  0  0  0  0  0  0  0
    8.1480   -5.9802   28.3282 H   0  0  0  0  0  0  0  0  0  0  0  0
    8.7346   -4.8782   26.1727 H   0  0  0  0  0  0  0  0  0  0  0  0
   10.3409   -4.3710   26.8544 H   0  0  0  0  0  0  0  0  0  0  0  0
   11.0868   -6.6759   21.5187 H   0  0  0  0  0  0  0  0  0  0  0  0
   11.4603   -5.5171   19.5374 H   0  0  0  0  0  0  0  0  0  0  0  0
   14.3096   -4.4016   23.1592 H   0  0  0  0  0  0  0  0  0  0  0  0
   15.2280   -2.4684   21.3556 H   0  0  0  0  0  0  0  0  0  0  0  0
   16.0900   -3.7999   20.5630 H   0  0  0  0  0  0  0  0  0  0  0  0
   15.9494   -2.0368   18.9249 H   0  0  0  0  0  0  0  0  0  0  0  0
   14.2753   -1.6935   19.3015 H   0  0  0  0  0  0  0  0  0  0  0  0
   15.2479   -4.1384   18.0012 H   0  0  0  0  0  0  0  0  0  0  0  0
   13.0892   -4.7905   17.7324 H   0  0  0  0  0  0  0  0  0  0  0  0
   12.5198   -3.2454   18.3348 H   0  0  0  0  0  0  0  0  0  0  0  0
  1  2  2  0
  2  3  1  0
  3  4  1  0
  4  5  2  0
  5  6  1  0
  6  7  2  0
  7  8  1  0
  8  9  1  0
  9 10  1  0
 10 11  1  0
  2 12  1  0
 12 13  2  0
 13 14  1  0
 14 15  2  0
 15 16  1  0
 16 17  2  0
 16 18  1  0
 18 19  1  0
 19 20  1  0
 20 21  1  0
  8  4  1  0
 11  9  1  0
 17 12  1  0
 21 15  1  0
  3 22  1  0
  6 23  1  0
  7 24  1  0
  9 25  1  0
 10 26  1  0
 10 27  1  0
 11 28  1  0
 11 29  1  0
 13 30  1  0
 14 31  1  0
 17 32  1  0
 18 33  1  0
 18 34  1  0
 19 35  1  0
 19 36  1  0
 20 37  1  0
 21 38  1  0
 21 39  1  0
M  END
>  <Energy>  (596) 
143.12602292998676

>  <compound_id>  (596) 
46566

>  <target_id>  (596) 
1

>  <reference_id>  (596) 
116

>  <inspiration_ids>  (596) 
[116, 146]

>  <energy_score>  (596) 
40.73222215851274

>  <distance_score>  (596) 
8.057272169078777

>  <path>  (596) 
/opt/xchem-fragalysis-2/maxwin/BulkDock/SCRATCH/511023/C46566-P116/C46566-P116.minimised.mol

>  <scratch_subdir>  (596) 
/opt/xchem-fragalysis-2/maxwin/BulkDock/SCRATCH/511023/C46566-P116

>  <fragmenstein_runtime>  (596) 
8.328166246414185

>  <fragmenstein_outcome>  (596) 
too moved

>  <fragmenstein_mode>  (596) 
expansion

>  <fragmenstein_error>  (596) 


$$$$
C46566-P146
     RDKit          3D

 39 42  0  0  0  0  0  0  0  0999 V2000
    6.2211   -7.1501   24.3394 O   0  0  0  0  0  0  0  0  0  0  0  0
    5.6566   -7.3641   23.2668 C   0  0  0  0  0  0  0  0  0  0  0  0
    4.0408   -8.4386   23.1791 N   0  0  0  0  0  0  0  0  0  0  0  0
    3.1106   -9.4339   24.4454 C   0  0  0  0  0  0  0  0  0  0  0  0
    4.1245   -9.9468   25.0460 N   0  0  0  0  0  0  0  0  0  0  0  0
    4.3085  -10.9401   24.1023 C   0  0  0  0  0  0  0  0  0  0  0  0
    3.1624  -11.7042   23.7791 C   0  0  0  0  0  0  0  0  0  0  0  0
    2.0567  -11.0728   24.3806 N   0  0  0  0  0  0  0  0  0  0  0  0
    0.3180  -12.3171   24.3025 C   0  0  0  0  0  0  0  0  0  0  0  0
   -1.0761  -13.1162   25.5238 C   0  0  0  0  0  0  0  0  0  0  0  0
   -1.7444  -12.0629   24.9474 C   0  0  0  0  0  0  0  0  0  0  0  0
    6.8246   -6.5963   21.6790 C   0  0  0  0  0  0  0  0  0  0  0  0
    7.2448   -6.9046   19.8458 C   0  0  0  0  0  0  0  0  0  0  0  0
    9.1071   -6.3675   19.2835 C   0  0  0  0  0  0  0  0  0  0  0  0
   10.1192   -5.6546   19.2719 C   0  0  0  0  0  0  0  0  0  0  0  0
    9.3417   -4.9771   20.2574 C   0  0  0  0  0  0  0  0  0  0  0  0
    7.8030   -5.0666   21.4264 C   0  0  0  0  0  0  0  0  0  0  0  0
   11.2732   -5.0992   20.8743 C   0  0  0  0  0  0  0  0  0  0  0  0
   12.6525   -4.6656   19.9629 C   0  0  0  0  0  0  0  0  0  0  0  0
   12.6939   -4.5230   18.4812 N   0  0  0  0  0  0  0  0  0  0  0  0
   11.3320   -4.8050   17.8652 C   0  0  0  0  0  0  0  0  0  0  0  0
    3.7132   -8.4256   22.3130 H   0  0  0  0  0  0  0  0  0  0  0  0
    5.3432  -11.1035   23.8528 H   0  0  0  0  0  0  0  0  0  0  0  0
    3.0404  -12.6503   23.2795 H   0  0  0  0  0  0  0  0  0  0  0  0
    0.5927  -13.0249   23.5130 H   0  0  0  0  0  0  0  0  0  0  0  0
   -1.7756  -13.9488   25.5443 H   0  0  0  0  0  0  0  0  0  0  0  0
   -0.9933  -13.2357   26.5715 H   0  0  0  0  0  0  0  0  0  0  0  0
   -2.7717  -11.9463   24.5659 H   0  0  0  0  0  0  0  0  0  0  0  0
   -2.1385  -11.7507   25.9782 H   0  0  0  0  0  0  0  0  0  0  0  0
    6.8481   -7.8081   19.4856 H   0  0  0  0  0  0  0  0  0  0  0  0
    9.4698   -7.4949   19.7225 H   0  0  0  0  0  0  0  0  0  0  0  0
    7.5811   -4.2805   22.1504 H   0  0  0  0  0  0  0  0  0  0  0  0
   11.4995   -4.4763   21.7564 H   0  0  0  0  0  0  0  0  0  0  0  0
   11.5038   -6.1630   20.9904 H   0  0  0  0  0  0  0  0  0  0  0  0
   13.0074   -3.7208   20.3866 H   0  0  0  0  0  0  0  0  0  0  0  0
   13.4402   -5.3645   20.2710 H   0  0  0  0  0  0  0  0  0  0  0  0
   13.3668   -5.1862   18.1048 H   0  0  0  0  0  0  0  0  0  0  0  0
   11.5468   -5.4874   17.0019 H   0  0  0  0  0  0  0  0  0  0  0  0
   11.0298   -3.9658   17.2326 H   0  0  0  0  0  0  0  0  0  0  0  0
  1  2  2  0
  2  3  1  0
  3  4  1  0
  4  5  2  0
  5  6  1  0
  6  7  2  0
  7  8  1  0
  8  9  1  0
  9 10  1  0
 10 11  1  0
  2 12  1  0
 12 13  2  0
 13 14  1  0
 14 15  2  0
 15 16  1  0
 16 17  2  0
 16 18  1  0
 18 19  1  0
 19 20  1  0
 20 21  1  0
  8  4  1  0
 11  9  1  0
 17 12  1  0
 21 15  1  0
  3 22  1  0
  6 23  1  0
  7 24  1  0
  9 25  1  0
 10 26  1  0
 10 27  1  0
 11 28  1  0
 11 29  1  0
 13 30  1  0
 14 31  1  0
 17 32  1  0
 18 33  1  0
 18 34  1  0
 19 35  1  0
 19 36  1  0
 20 37  1  0
 21 38  1  0
 21 39  1  0
M  END
>  <Energy>  (597) 
1633.7448029866898

>  <compound_id>  (597) 
46566

>  <target_id>  (597) 
1

>  <reference_id>  (597) 
146

>  <inspiration_ids>  (597) 
[116, 146]

>  <energy_score>  (597) 
1539.6133812463008

>  <distance_score>  (597) 
7.2462089343197125

>  <path>  (597) 
/opt/xchem-fragalysis-2/maxwin/BulkDock/SCRATCH/511023/C46566-P146/C46566-P146.minimised.mol

>  <scratch_subdir>  (597) 
/opt/xchem-fragalysis-2/maxwin/BulkDock/SCRATCH/511023/C46566-P146

>  <fragmenstein_runtime>  (597) 
24.426085948944092

>  <fragmenstein_outcome>  (597) 
too moved

>  <fragmenstein_mode>  (597) 
expansion

>  <fragmenstein_error>  (597) 


$$$$
C46567-P116
     RDKit          3D

 41 43  0  0  0  0  0  0  0  0999 V2000
    8.1377   -9.6532   25.4402 C   0  0  0  0  0  0  0  0  0  0  0  0
    8.0631   -8.1671   25.7789 C   0  0  0  0  0  0  0  0  0  0  0  0
    6.6228   -7.6445   25.8252 C   0  0  0  0  0  0  0  0  0  0  0  0
    8.7651   -7.9048   27.0237 N   0  0  0  0  0  0  0  0  0  0  0  0
    8.2388   -8.2806   28.2444 C   0  0  0  0  0  0  0  0  0  0  0  0
    8.9807   -7.6069   29.1704 C   0  0  0  0  0  0  0  0  0  0  0  0
    9.9618   -6.8759   28.5511 N   0  0  0  0  0  0  0  0  0  0  0  0
    9.8876   -7.1196   27.2534 C   0  0  0  0  0  0  0  0  0  0  0  0
   10.8097   -6.5598   26.3848 N   0  0  0  0  0  0  0  0  0  0  0  0
   11.1318   -6.8725   25.0076 C   0  0  0  0  0  0  0  0  0  0  0  0
   10.7349   -7.7520   24.2893 O   0  0  0  0  0  0  0  0  0  0  0  0
   12.0750   -5.8428   24.2802 C   0  0  0  0  0  0  0  0  0  0  0  0
   12.4389   -4.5910   24.7926 C   0  0  0  0  0  0  0  0  0  0  0  0
   13.1287   -3.6398   24.0030 C   0  0  0  0  0  0  0  0  0  0  0  0
   13.4520   -3.8838   22.6635 C   0  0  0  0  0  0  0  0  0  0  0  0
   13.0708   -5.1031   22.1034 C   0  0  0  0  0  0  0  0  0  0  0  0
   12.4321   -6.0802   22.9208 C   0  0  0  0  0  0  0  0  0  0  0  0
   13.3447   -5.3665   20.6395 C   0  0  0  0  0  0  0  0  0  0  0  0
   13.4978   -4.1582   19.8198 N   0  0  0  0  0  0  0  0  0  0  0  0
   14.5095   -3.2908   20.4116 C   0  0  0  0  0  0  0  0  0  0  0  0
   14.1341   -2.8241   21.8257 C   0  0  0  0  0  0  0  0  0  0  0  0
    7.6704   -9.8688   24.4808 H   0  0  0  0  0  0  0  0  0  0  0  0
    9.1787   -9.9907   25.3882 H   0  0  0  0  0  0  0  0  0  0  0  0
    7.6307  -10.2663   26.1937 H   0  0  0  0  0  0  0  0  0  0  0  0
    8.5644   -7.5775   25.0221 H   0  0  0  0  0  0  0  0  0  0  0  0
    6.1729   -7.6489   24.8304 H   0  0  0  0  0  0  0  0  0  0  0  0
    6.5929   -6.6106   26.1883 H   0  0  0  0  0  0  0  0  0  0  0  0
    5.9888   -8.2470   26.4840 H   0  0  0  0  0  0  0  0  0  0  0  0
    7.3805   -8.9312   28.3357 H   0  0  0  0  0  0  0  0  0  0  0  0
    8.8653   -7.5980   30.2459 H   0  0  0  0  0  0  0  0  0  0  0  0
   11.3930   -5.8017   26.6950 H   0  0  0  0  0  0  0  0  0  0  0  0
   12.1694   -4.2745   25.7952 H   0  0  0  0  0  0  0  0  0  0  0  0
   13.3737   -2.6741   24.4453 H   0  0  0  0  0  0  0  0  0  0  0  0
   12.1471   -7.0274   22.4619 H   0  0  0  0  0  0  0  0  0  0  0  0
   12.4799   -5.8962   20.2497 H   0  0  0  0  0  0  0  0  0  0  0  0
   14.2293   -6.0054   20.5426 H   0  0  0  0  0  0  0  0  0  0  0  0
   12.5819   -3.7081   19.7986 H   0  0  0  0  0  0  0  0  0  0  0  0
   14.6652   -2.4164   19.7698 H   0  0  0  0  0  0  0  0  0  0  0  0
   15.4695   -3.8223   20.4397 H   0  0  0  0  0  0  0  0  0  0  0  0
   15.0425   -2.4876   22.3397 H   0  0  0  0  0  0  0  0  0  0  0  0
   13.4641   -1.9632   21.7508 H   0  0  0  0  0  0  0  0  0  0  0  0
  1  2  1  0
  2  3  1  0
  2  4  1  0
  4  5  1  0
  5  6  2  0
  6  7  1  0
  7  8  2  0
  8  9  1  0
  9 10  1  0
 10 11  2  0
 10 12  1  0
 12 13  2  0
 13 14  1  0
 14 15  2  0
 15 16  1  0
 16 17  2  0
 16 18  1  0
 18 19  1  0
 19 20  1  0
 20 21  1  0
  8  4  1  0
 17 12  1  0
 21 15  1  0
  1 22  1  0
  1 23  1  0
  1 24  1  0
  2 25  1  0
  3 26  1  0
  3 27  1  0
  3 28  1  0
  5 29  1  0
  6 30  1  0
  9 31  1  0
 13 32  1  0
 14 33  1  0
 17 34  1  0
 18 35  1  0
 18 36  1  0
 19 37  1  0
 20 38  1  0
 20 39  1  0
 21 40  1  0
 21 41  1  0
M  END
>  <Energy>  (598) 
39.513270906543283

>  <compound_id>  (598) 
46567

>  <target_id>  (598) 
1

>  <reference_id>  (598) 
116

>  <inspiration_ids>  (598) 
[116, 146]

>  <energy_score>  (598) 
-41.12236637403561

>  <distance_score>  (598) 
9.099203906379126

>  <path>  (598) 
/opt/xchem-fragalysis-2/maxwin/BulkDock/SCRATCH/511023/C46567-P116/C46567-P116.minimised.mol

>  <scratch_subdir>  (598) 
/opt/xchem-fragalysis-2/maxwin/BulkDock/SCRATCH/511023/C46567-P116

>  <fragmenstein_runtime>  (598) 
13.168985843658447

>  <fragmenstein_outcome>  (598) 
too moved

>  <fragmenstein_mode>  (598) 
expansion

>  <fragmenstein_error>  (598) 


$$$$
C46567-P146
     RDKit          3D

 41 43  0  0  0  0  0  0  0  0999 V2000
    6.4184   -8.9905   25.4957 C   0  0  0  0  0  0  0  0  0  0  0  0
    5.0811   -8.6632   24.7918 C   0  0  0  0  0  0  0  0  0  0  0  0
    3.7237   -8.8089   25.3906 C   0  0  0  0  0  0  0  0  0  0  0  0
    5.2300   -7.3059   24.2968 N   0  0  0  0  0  0  0  0  0  0  0  0
    5.0403   -6.3242   25.2812 C   0  0  0  0  0  0  0  0  0  0  0  0
    5.9994   -5.4173   25.0264 C   0  0  0  0  0  0  0  0  0  0  0  0
    6.5476   -5.7290   23.8241 N   0  0  0  0  0  0  0  0  0  0  0  0
    5.9698   -6.7873   23.1518 C   0  0  0  0  0  0  0  0  0  0  0  0
    7.1060   -7.1861   22.4619 N   0  0  0  0  0  0  0  0  0  0  0  0
    7.4200   -7.5915   20.6111 C   0  0  0  0  0  0  0  0  0  0  0  0
    6.6647   -7.6593   19.6798 O   0  0  0  0  0  0  0  0  0  0  0  0
    9.5467   -7.7990   20.2636 C   0  0  0  0  0  0  0  0  0  0  0  0
   10.8093   -8.1965   21.4595 C   0  0  0  0  0  0  0  0  0  0  0  0
   11.8833   -7.3608   22.4564 C   0  0  0  0  0  0  0  0  0  0  0  0
   12.5224   -6.0598   21.9904 C   0  0  0  0  0  0  0  0  0  0  0  0
   11.8988   -5.5444   20.8123 C   0  0  0  0  0  0  0  0  0  0  0  0
   10.3920   -6.1241   20.2955 C   0  0  0  0  0  0  0  0  0  0  0  0
   12.8932   -4.6818   19.9764 C   0  0  0  0  0  0  0  0  0  0  0  0
   13.6649   -3.7282   20.7822 N   0  0  0  0  0  0  0  0  0  0  0  0
   14.4546   -4.4560   21.7763 C   0  0  0  0  0  0  0  0  0  0  0  0
   13.5878   -5.3049   22.7162 C   0  0  0  0  0  0  0  0  0  0  0  0
    6.4976   -8.5027   26.4748 H   0  0  0  0  0  0  0  0  0  0  0  0
    6.5850  -10.0722   25.5533 H   0  0  0  0  0  0  0  0  0  0  0  0
    7.2974   -8.6114   24.9581 H   0  0  0  0  0  0  0  0  0  0  0  0
    4.8385   -9.3831   24.0160 H   0  0  0  0  0  0  0  0  0  0  0  0
    3.0500   -8.4198   24.6368 H   0  0  0  0  0  0  0  0  0  0  0  0
    3.5581   -8.3213   26.3456 H   0  0  0  0  0  0  0  0  0  0  0  0
    3.4128   -9.8383   25.3971 H   0  0  0  0  0  0  0  0  0  0  0  0
    4.3916   -6.4375   26.1323 H   0  0  0  0  0  0  0  0  0  0  0  0
    6.3258   -4.5590   25.5961 H   0  0  0  0  0  0  0  0  0  0  0  0
    7.9204   -7.2873   23.0094 H   0  0  0  0  0  0  0  0  0  0  0  0
   10.6627   -8.9728   22.2161 H   0  0  0  0  0  0  0  0  0  0  0  0
   12.0700   -7.7568   23.4674 H   0  0  0  0  0  0  0  0  0  0  0  0
    9.8384   -5.6335   19.5263 H   0  0  0  0  0  0  0  0  0  0  0  0
   13.6367   -5.3536   19.5443 H   0  0  0  0  0  0  0  0  0  0  0  0
   12.5250   -4.1831   19.0848 H   0  0  0  0  0  0  0  0  0  0  0  0
   14.3038   -3.2229   20.1720 H   0  0  0  0  0  0  0  0  0  0  0  0
   15.0331   -3.7410   22.3720 H   0  0  0  0  0  0  0  0  0  0  0  0
   15.1847   -5.0991   21.2674 H   0  0  0  0  0  0  0  0  0  0  0  0
   14.2291   -6.0014   23.2676 H   0  0  0  0  0  0  0  0  0  0  0  0
   13.0975   -4.6540   23.4504 H   0  0  0  0  0  0  0  0  0  0  0  0
  1  2  1  0
  2  3  1  0
  2  4  1  0
  4  5  1  0
  5  6  2  0
  6  7  1  0
  7  8  2  0
  8  9  1  0
  9 10  1  0
 10 11  2  0
 10 12  1  0
 12 13  2  0
 13 14  1  0
 14 15  2  0
 15 16  1  0
 16 17  2  0
 16 18  1  0
 18 19  1  0
 19 20  1  0
 20 21  1  0
  8  4  1  0
 17 12  1  0
 21 15  1  0
  1 22  1  0
  1 23  1  0
  1 24  1  0
  2 25  1  0
  3 26  1  0
  3 27  1  0
  3 28  1  0
  5 29  1  0
  6 30  1  0
  9 31  1  0
 13 32  1  0
 14 33  1  0
 17 34  1  0
 18 35  1  0
 18 36  1  0
 19 37  1  0
 20 38  1  0
 20 39  1  0
 21 40  1  0
 21 41  1  0
M  END
>  <Energy>  (599) 
581.08123941653923

>  <compound_id>  (599) 
46567

>  <target_id>  (599) 
1

>  <reference_id>  (599) 
146

>  <inspiration_ids>  (599) 
[116, 146]

>  <energy_score>  (599) 
500.44560213594946

>  <distance_score>  (599) 
8.842475477244381

>  <path>  (599) 
/opt/xchem-fragalysis-2/maxwin/BulkDock/SCRATCH/511023/C46567-P146/C46567-P146.minimised.mol

>  <scratch_subdir>  (599) 
/opt/xchem-fragalysis-2/maxwin/BulkDock/SCRATCH/511023/C46567-P146

>  <fragmenstein_runtime>  (599) 
15.63978123664856

>  <fragmenstein_outcome>  (599) 
too moved

>  <fragmenstein_mode>  (599) 
expansion

>  <fragmenstein_error>  (599) 


$$$$
C46569-P116
     RDKit          3D

 41 43  0  0  0  0  0  0  0  0999 V2000
    6.4343   -7.6317   19.6914 O   0  0  0  0  0  0  0  0  0  0  0  0
    7.1182   -7.4046   20.6441 C   0  0  0  0  0  0  0  0  0  0  0  0
    6.6381   -7.0552   22.4857 N   0  0  0  0  0  0  0  0  0  0  0  0
    5.4160   -7.0830   23.1613 C   0  0  0  0  0  0  0  0  0  0  0  0
    4.5809   -6.6127   24.1120 N   0  0  0  0  0  0  0  0  0  0  0  0
    5.1273   -5.6052   24.9061 C   0  0  0  0  0  0  0  0  0  0  0  0
    6.3907   -5.9772   25.1435 C   0  0  0  0  0  0  0  0  0  0  0  0
    6.2478   -7.2484   24.6121 N   0  0  0  0  0  0  0  0  0  0  0  0
    6.4743   -8.3356   25.5527 C   0  0  0  0  0  0  0  0  0  0  0  0
    7.4879   -9.4088   25.2487 C   0  0  0  0  0  0  0  0  0  0  0  0
    7.0261  -10.5047   24.6256 F   0  0  0  0  0  0  0  0  0  0  0  0
    8.0333   -9.8505   26.4172 F   0  0  0  0  0  0  0  0  0  0  0  0
    8.5297   -8.9097   24.5319 F   0  0  0  0  0  0  0  0  0  0  0  0
    9.2757   -7.5347   20.3823 C   0  0  0  0  0  0  0  0  0  0  0  0
   10.4034   -8.2076   21.2680 C   0  0  0  0  0  0  0  0  0  0  0  0
   11.6617   -7.7898   21.9646 C   0  0  0  0  0  0  0  0  0  0  0  0
   12.2709   -6.5628   21.8441 C   0  0  0  0  0  0  0  0  0  0  0  0
   11.6613   -5.7418   20.9382 C   0  0  0  0  0  0  0  0  0  0  0  0
   10.2378   -6.0812   20.5186 C   0  0  0  0  0  0  0  0  0  0  0  0
   12.6594   -4.9210   20.0801 C   0  0  0  0  0  0  0  0  0  0  0  0
   13.1685   -3.6994   20.6954 N   0  0  0  0  0  0  0  0  0  0  0  0
   14.2468   -3.9452   21.6451 C   0  0  0  0  0  0  0  0  0  0  0  0
   13.8587   -4.8246   22.8243 C   0  0  0  0  0  0  0  0  0  0  0  0
   13.6128   -6.2907   22.4591 C   0  0  0  0  0  0  0  0  0  0  0  0
    7.4168   -6.9850   23.0585 H   0  0  0  0  0  0  0  0  0  0  0  0
    4.5379   -4.8177   25.3546 H   0  0  0  0  0  0  0  0  0  0  0  0
    7.1430   -5.6470   25.8455 H   0  0  0  0  0  0  0  0  0  0  0  0
    6.9396   -7.8364   26.4201 H   0  0  0  0  0  0  0  0  0  0  0  0
    5.5358   -8.6303   26.0105 H   0  0  0  0  0  0  0  0  0  0  0  0
   10.3564   -9.1751   21.6813 H   0  0  0  0  0  0  0  0  0  0  0  0
   12.1457   -8.5471   22.5906 H   0  0  0  0  0  0  0  0  0  0  0  0
    9.8478   -5.5105   19.7163 H   0  0  0  0  0  0  0  0  0  0  0  0
   12.2722   -4.6961   19.0850 H   0  0  0  0  0  0  0  0  0  0  0  0
   13.5074   -5.5704   19.8164 H   0  0  0  0  0  0  0  0  0  0  0  0
   13.5586   -3.1343   19.9432 H   0  0  0  0  0  0  0  0  0  0  0  0
   15.1188   -4.3664   21.1292 H   0  0  0  0  0  0  0  0  0  0  0  0
   14.5653   -2.9720   22.0371 H   0  0  0  0  0  0  0  0  0  0  0  0
   14.6909   -4.7951   23.5397 H   0  0  0  0  0  0  0  0  0  0  0  0
   12.9898   -4.4034   23.3466 H   0  0  0  0  0  0  0  0  0  0  0  0
   13.6795   -6.8678   23.3911 H   0  0  0  0  0  0  0  0  0  0  0  0
   14.4058   -6.6668   21.8014 H   0  0  0  0  0  0  0  0  0  0  0  0
  1  2  2  0
  2  3  1  0
  3  4  1  0
  4  5  2  0
  5  6  1  0
  6  7  2  0
  7  8  1  0
  8  9  1  0
  9 10  1  0
 10 11  1  0
 10 12  1  0
 10 13  1  0
  2 14  1  0
 14 15  2  0
 15 16  1  0
 16 17  2  0
 17 18  1  0
 18 19  2  0
 18 20  1  0
 20 21  1  0
 21 22  1  0
 22 23  1  0
 23 24  1  0
  8  4  1  0
 19 14  1  0
 24 17  1  0
  3 25  1  0
  6 26  1  0
  7 27  1  0
  9 28  1  0
  9 29  1  0
 15 30  1  0
 16 31  1  0
 19 32  1  0
 20 33  1  0
 20 34  1  0
 21 35  1  0
 22 36  1  0
 22 37  1  0
 23 38  1  0
 23 39  1  0
 24 40  1  0
 24 41  1  0
M  END
>  <Energy>  (600) 
536.95903278028391

>  <compound_id>  (600) 
46569

>  <target_id>  (600) 
1

>  <reference_id>  (600) 
116

>  <inspiration_ids>  (600) 
[116, 146]

>  <energy_score>  (600) 
464.35785282550245

>  <distance_score>  (600) 
8.775769074922025

>  <path>  (600) 
/opt/xchem-fragalysis-2/maxwin/BulkDock/SCRATCH/511023/C46569-P116/C46569-P116.minimised.mol

>  <scratch_subdir>  (600) 
/opt/xchem-fragalysis-2/maxwin/BulkDock/SCRATCH/511023/C46569-P116

>  <fragmenstein_runtime>  (600) 
11.755578756332397

>  <fragmenstein_outcome>  (600) 
too moved

>  <fragmenstein_mode>  (600) 
expansion

>  <fragmenstein_error>  (600) 


$$$$
C46569-P146
     RDKit          3D

 41 43  0  0  0  0  0  0  0  0999 V2000
    7.7953   -4.1709   20.5561 O   0  0  0  0  0  0  0  0  0  0  0  0
    8.2718   -4.9119   21.3014 C   0  0  0  0  0  0  0  0  0  0  0  0
    7.6175   -5.5858   22.9269 N   0  0  0  0  0  0  0  0  0  0  0  0
    6.4899   -5.2808   23.6556 C   0  0  0  0  0  0  0  0  0  0  0  0
    6.3558   -4.0585   24.1946 N   0  0  0  0  0  0  0  0  0  0  0  0
    6.2065   -4.1205   25.5553 C   0  0  0  0  0  0  0  0  0  0  0  0
    6.2681   -5.4161   25.9465 C   0  0  0  0  0  0  0  0  0  0  0  0
    6.1559   -6.1140   24.7660 N   0  0  0  0  0  0  0  0  0  0  0  0
    5.5053   -7.3966   24.7410 C   0  0  0  0  0  0  0  0  0  0  0  0
    4.3697   -7.4902   25.7245 C   0  0  0  0  0  0  0  0  0  0  0  0
    4.8102   -7.5890   27.0045 F   0  0  0  0  0  0  0  0  0  0  0  0
    3.5473   -6.4225   25.7036 F   0  0  0  0  0  0  0  0  0  0  0  0
    3.6079   -8.5902   25.5248 F   0  0  0  0  0  0  0  0  0  0  0  0
   10.3135   -5.4533   20.8217 C   0  0  0  0  0  0  0  0  0  0  0  0
   11.6378   -4.6645   21.6701 C   0  0  0  0  0  0  0  0  0  0  0  0
   13.0654   -4.3695   21.5790 C   0  0  0  0  0  0  0  0  0  0  0  0
   13.6626   -4.5199   20.3847 C   0  0  0  0  0  0  0  0  0  0  0  0
   12.7496   -5.0214   19.5020 C   0  0  0  0  0  0  0  0  0  0  0  0
   11.2787   -5.6606   19.9919 C   0  0  0  0  0  0  0  0  0  0  0  0
   12.9456   -4.5897   18.0240 C   0  0  0  0  0  0  0  0  0  0  0  0
   14.0969   -5.2019   17.3747 N   0  0  0  0  0  0  0  0  0  0  0  0
   15.3537   -4.5140   17.6274 C   0  0  0  0  0  0  0  0  0  0  0  0
   15.8390   -4.6571   19.0601 C   0  0  0  0  0  0  0  0  0  0  0  0
   14.9884   -3.9051   20.0781 C   0  0  0  0  0  0  0  0  0  0  0  0
    8.1863   -6.2483   23.2984 H   0  0  0  0  0  0  0  0  0  0  0  0
    6.1483   -3.2245   26.1571 H   0  0  0  0  0  0  0  0  0  0  0  0
    6.2473   -5.8662   26.9277 H   0  0  0  0  0  0  0  0  0  0  0  0
    5.0937   -7.5255   23.7497 H   0  0  0  0  0  0  0  0  0  0  0  0
    6.2675   -8.1378   24.9915 H   0  0  0  0  0  0  0  0  0  0  0  0
   11.4310   -4.1799   22.6528 H   0  0  0  0  0  0  0  0  0  0  0  0
   13.5537   -3.8580   22.4065 H   0  0  0  0  0  0  0  0  0  0  0  0
   10.3470   -5.7691   19.3241 H   0  0  0  0  0  0  0  0  0  0  0  0
   13.0020   -3.4934   17.9783 H   0  0  0  0  0  0  0  0  0  0  0  0
   12.0674   -4.8215   17.4166 H   0  0  0  0  0  0  0  0  0  0  0  0
   13.9420   -5.2114   16.3732 H   0  0  0  0  0  0  0  0  0  0  0  0
   16.1109   -4.9614   16.9723 H   0  0  0  0  0  0  0  0  0  0  0  0
   15.2871   -3.4578   17.3388 H   0  0  0  0  0  0  0  0  0  0  0  0
   15.9121   -5.7181   19.3323 H   0  0  0  0  0  0  0  0  0  0  0  0
   16.8592   -4.2549   19.1075 H   0  0  0  0  0  0  0  0  0  0  0  0
   14.8394   -2.8665   19.7566 H   0  0  0  0  0  0  0  0  0  0  0  0
   15.5688   -3.8604   21.0095 H   0  0  0  0  0  0  0  0  0  0  0  0
  1  2  2  0
  2  3  1  0
  3  4  1  0
  4  5  2  0
  5  6  1  0
  6  7  2  0
  7  8  1  0
  8  9  1  0
  9 10  1  0
 10 11  1  0
 10 12  1  0
 10 13  1  0
  2 14  1  0
 14 15  2  0
 15 16  1  0
 16 17  2  0
 17 18  1  0
 18 19  2  0
 18 20  1  0
 20 21  1  0
 21 22  1  0
 22 23  1  0
 23 24  1  0
  8  4  1  0
 19 14  1  0
 24 17  1  0
  3 25  1  0
  6 26  1  0
  7 27  1  0
  9 28  1  0
  9 29  1  0
 15 30  1  0
 16 31  1  0
 19 32  1  0
 20 33  1  0
 20 34  1  0
 21 35  1  0
 22 36  1  0
 22 37  1  0
 23 38  1  0
 23 39  1  0
 24 40  1  0
 24 41  1  0
M  END
>  <Energy>  (601) 
464.0177947423889

>  <compound_id>  (601) 
46569

>  <target_id>  (601) 
1

>  <reference_id>  (601) 
146

>  <inspiration_ids>  (601) 
[116, 146]

>  <energy_score>  (601) 
391.416614787606

>  <distance_score>  (601) 
8.22196995764598

>  <path>  (601) 
/opt/xchem-fragalysis-2/maxwin/BulkDock/SCRATCH/511023/C46569-P146/C46569-P146.minimised.mol

>  <scratch_subdir>  (601) 
/opt/xchem-fragalysis-2/maxwin/BulkDock/SCRATCH/511023/C46569-P146

>  <fragmenstein_runtime>  (601) 
19.455326318740845

>  <fragmenstein_outcome>  (601) 
too moved

>  <fragmenstein_mode>  (601) 
expansion

>  <fragmenstein_error>  (601) 


$$$$
C46570-P116
     RDKit          3D

 38 40  0  0  0  0  0  0  0  0999 V2000
   11.9932   -8.1969   23.1820 O   0  0  0  0  0  0  0  0  0  0  0  0
   11.8006   -7.1721   23.7761 C   0  0  0  0  0  0  0  0  0  0  0  0
   10.8748   -6.8600   24.8526 N   0  0  0  0  0  0  0  0  0  0  0  0
    9.8835   -7.6216   25.4429 C   0  0  0  0  0  0  0  0  0  0  0  0
    9.5144   -8.8283   25.0582 N   0  0  0  0  0  0  0  0  0  0  0  0
    8.3836   -9.1631   25.7652 C   0  0  0  0  0  0  0  0  0  0  0  0
    8.0160   -8.1267   26.5815 C   0  0  0  0  0  0  0  0  0  0  0  0
    8.9633   -7.1494   26.3702 N   0  0  0  0  0  0  0  0  0  0  0  0
    8.8636   -5.8102   26.9163 C   0  0  0  0  0  0  0  0  0  0  0  0
   10.0701   -5.3842   27.7142 C   0  0  0  0  0  0  0  0  0  0  0  0
    9.8308   -4.2130   28.3477 F   0  0  0  0  0  0  0  0  0  0  0  0
   10.4150   -6.2879   28.6524 F   0  0  0  0  0  0  0  0  0  0  0  0
   11.1394   -5.1830   26.9059 F   0  0  0  0  0  0  0  0  0  0  0  0
   12.6114   -5.9695   23.2120 C   0  0  0  0  0  0  0  0  0  0  0  0
   12.6841   -4.6832   23.7539 C   0  0  0  0  0  0  0  0  0  0  0  0
   13.2693   -3.6168   23.0278 C   0  0  0  0  0  0  0  0  0  0  0  0
   13.7853   -3.7944   21.7360 C   0  0  0  0  0  0  0  0  0  0  0  0
   13.7595   -5.0721   21.1780 C   0  0  0  0  0  0  0  0  0  0  0  0
   13.1822   -6.1309   21.9246 C   0  0  0  0  0  0  0  0  0  0  0  0
   14.2571   -5.3008   19.7634 C   0  0  0  0  0  0  0  0  0  0  0  0
   15.1295   -4.2394   19.2307 N   0  0  0  0  0  0  0  0  0  0  0  0
   14.5299   -2.9317   19.4686 C   0  0  0  0  0  0  0  0  0  0  0  0
   14.4394   -2.6605   20.9788 C   0  0  0  0  0  0  0  0  0  0  0  0
   11.0422   -5.9173   25.1682 H   0  0  0  0  0  0  0  0  0  0  0  0
    7.8900  -10.1162   25.6216 H   0  0  0  0  0  0  0  0  0  0  0  0
    7.1736   -7.9983   27.2476 H   0  0  0  0  0  0  0  0  0  0  0  0
    8.6992   -5.1296   26.0760 H   0  0  0  0  0  0  0  0  0  0  0  0
    7.9723   -5.7717   27.5524 H   0  0  0  0  0  0  0  0  0  0  0  0
   12.2975   -4.4484   24.7395 H   0  0  0  0  0  0  0  0  0  0  0  0
   13.3024   -2.6283   23.4861 H   0  0  0  0  0  0  0  0  0  0  0  0
   13.1592   -7.1220   21.4835 H   0  0  0  0  0  0  0  0  0  0  0  0
   14.8240   -6.2367   19.7347 H   0  0  0  0  0  0  0  0  0  0  0  0
   13.3836   -5.3913   19.1130 H   0  0  0  0  0  0  0  0  0  0  0  0
   15.2220   -4.4076   18.2298 H   0  0  0  0  0  0  0  0  0  0  0  0
   15.1479   -2.1565   19.0027 H   0  0  0  0  0  0  0  0  0  0  0  0
   13.5430   -2.8830   18.9946 H   0  0  0  0  0  0  0  0  0  0  0  0
   13.8934   -1.7271   21.1505 H   0  0  0  0  0  0  0  0  0  0  0  0
   15.4501   -2.5251   21.3851 H   0  0  0  0  0  0  0  0  0  0  0  0
  1  2  2  0
  2  3  1  0
  3  4  1  0
  4  5  2  0
  5  6  1  0
  6  7  2  0
  7  8  1  0
  8  9  1  0
  9 10  1  0
 10 11  1  0
 10 12  1  0
 10 13  1  0
  2 14  1  0
 14 15  2  0
 15 16  1  0
 16 17  2  0
 17 18  1  0
 18 19  2  0
 18 20  1  0
 20 21  1  0
 21 22  1  0
 22 23  1  0
  8  4  1  0
 19 14  1  0
 23 17  1  0
  3 24  1  0
  6 25  1  0
  7 26  1  0
  9 27  1  0
  9 28  1  0
 15 29  1  0
 16 30  1  0
 19 31  1  0
 20 32  1  0
 20 33  1  0
 21 34  1  0
 22 35  1  0
 22 36  1  0
 23 37  1  0
 23 38  1  0
M  END
>  <Energy>  (602) 
41.876591649471671

>  <compound_id>  (602) 
46570

>  <target_id>  (602) 
1

>  <reference_id>  (602) 
116

>  <inspiration_ids>  (602) 
[116, 146]

>  <energy_score>  (602) 
-22.276269235612858

>  <distance_score>  (602) 
8.549938848877227

>  <path>  (602) 
/opt/xchem-fragalysis-2/maxwin/BulkDock/SCRATCH/511023/C46570-P116/C46570-P116.minimised.mol

>  <scratch_subdir>  (602) 
/opt/xchem-fragalysis-2/maxwin/BulkDock/SCRATCH/511023/C46570-P116

>  <fragmenstein_runtime>  (602) 
15.442642211914062

>  <fragmenstein_outcome>  (602) 
too moved

>  <fragmenstein_mode>  (602) 
expansion

>  <fragmenstein_error>  (602) 


$$$$
C46570-P146
     RDKit          3D

 38 40  0  0  0  0  0  0  0  0999 V2000
    7.4013   -5.6666   21.7966 O   0  0  0  0  0  0  0  0  0  0  0  0
    8.1752   -4.8561   21.3494 C   0  0  0  0  0  0  0  0  0  0  0  0
    8.0613   -3.5132   21.2221 N   0  0  0  0  0  0  0  0  0  0  0  0
    6.9440   -2.5075   21.7048 C   0  0  0  0  0  0  0  0  0  0  0  0
    6.8551   -1.3109   21.1288 N   0  0  0  0  0  0  0  0  0  0  0  0
    5.6847   -0.7555   21.5485 C   0  0  0  0  0  0  0  0  0  0  0  0
    5.2408   -1.4081   22.6566 C   0  0  0  0  0  0  0  0  0  0  0  0
    6.2272   -2.3397   22.9163 N   0  0  0  0  0  0  0  0  0  0  0  0
    6.5152   -2.7533   24.2846 C   0  0  0  0  0  0  0  0  0  0  0  0
    5.5530   -2.3649   25.3982 C   0  0  0  0  0  0  0  0  0  0  0  0
    4.2979   -2.8177   25.1934 F   0  0  0  0  0  0  0  0  0  0  0  0
    5.9670   -2.8758   26.5834 F   0  0  0  0  0  0  0  0  0  0  0  0
    5.4860   -1.0225   25.5563 F   0  0  0  0  0  0  0  0  0  0  0  0
   10.1951   -5.3733   20.7404 C   0  0  0  0  0  0  0  0  0  0  0  0
   11.5803   -4.6153   21.5648 C   0  0  0  0  0  0  0  0  0  0  0  0
   13.0226   -4.3414   21.4547 C   0  0  0  0  0  0  0  0  0  0  0  0
   13.5726   -4.4841   20.2428 C   0  0  0  0  0  0  0  0  0  0  0  0
   12.6451   -5.0429   19.4200 C   0  0  0  0  0  0  0  0  0  0  0  0
   11.1595   -5.7018   19.9733 C   0  0  0  0  0  0  0  0  0  0  0  0
   12.8651   -4.7643   17.8887 C   0  0  0  0  0  0  0  0  0  0  0  0
   13.7420   -3.6123   17.6020 N   0  0  0  0  0  0  0  0  0  0  0  0
   15.0227   -3.8348   18.2792 C   0  0  0  0  0  0  0  0  0  0  0  0
   14.8437   -3.8368   19.8035 C   0  0  0  0  0  0  0  0  0  0  0  0
    8.9100   -3.1674   20.8960 H   0  0  0  0  0  0  0  0  0  0  0  0
    5.2603    0.1180   21.0708 H   0  0  0  0  0  0  0  0  0  0  0  0
    4.3994   -1.2093   23.3074 H   0  0  0  0  0  0  0  0  0  0  0  0
    6.5931   -3.8407   24.2812 H   0  0  0  0  0  0  0  0  0  0  0  0
    7.4475   -2.2454   24.5401 H   0  0  0  0  0  0  0  0  0  0  0  0
   11.4146   -4.1213   22.5521 H   0  0  0  0  0  0  0  0  0  0  0  0
   13.5317   -3.8209   22.2631 H   0  0  0  0  0  0  0  0  0  0  0  0
   10.2464   -5.8379   19.2874 H   0  0  0  0  0  0  0  0  0  0  0  0
   11.9135   -4.5521   17.3950 H   0  0  0  0  0  0  0  0  0  0  0  0
   13.2987   -5.6433   17.4064 H   0  0  0  0  0  0  0  0  0  0  0  0
   13.9025   -3.5773   16.5966 H   0  0  0  0  0  0  0  0  0  0  0  0
   15.4643   -4.7839   17.9480 H   0  0  0  0  0  0  0  0  0  0  0  0
   15.7302   -3.0465   17.9990 H   0  0  0  0  0  0  0  0  0  0  0  0
   14.8326   -2.7937   20.1464 H   0  0  0  0  0  0  0  0  0  0  0  0
   15.6977   -4.3335   20.2774 H   0  0  0  0  0  0  0  0  0  0  0  0
  1  2  2  0
  2  3  1  0
  3  4  1  0
  4  5  2  0
  5  6  1  0
  6  7  2  0
  7  8  1  0
  8  9  1  0
  9 10  1  0
 10 11  1  0
 10 12  1  0
 10 13  1  0
  2 14  1  0
 14 15  2  0
 15 16  1  0
 16 17  2  0
 17 18  1  0
 18 19  2  0
 18 20  1  0
 20 21  1  0
 21 22  1  0
 22 23  1  0
  8  4  1  0
 19 14  1  0
 23 17  1  0
  3 24  1  0
  6 25  1  0
  7 26  1  0
  9 27  1  0
  9 28  1  0
 15 29  1  0
 16 30  1  0
 19 31  1  0
 20 32  1  0
 20 33  1  0
 21 34  1  0
 22 35  1  0
 22 36  1  0
 23 37  1  0
 23 38  1  0
M  END
>  <Energy>  (603) 
416.99123035353898

>  <compound_id>  (603) 
46570

>  <target_id>  (603) 
1

>  <reference_id>  (603) 
146

>  <inspiration_ids>  (603) 
[116, 146]

>  <energy_score>  (603) 
352.8383694684552

>  <distance_score>  (603) 
9.996582137156118

>  <path>  (603) 
/opt/xchem-fragalysis-2/maxwin/BulkDock/SCRATCH/511023/C46570-P146/C46570-P146.minimised.mol

>  <scratch_subdir>  (603) 
/opt/xchem-fragalysis-2/maxwin/BulkDock/SCRATCH/511023/C46570-P146

>  <fragmenstein_runtime>  (603) 
28.573889017105103

>  <fragmenstein_outcome>  (603) 
too moved

>  <fragmenstein_mode>  (603) 
expansion

>  <fragmenstein_error>  (603) 


$$$$
C46571-P116
     RDKit          3D

 35 37  0  0  0  0  0  0  0  0999 V2000
   11.6395   -4.8640   24.9089 O   0  0  0  0  0  0  0  0  0  0  0  0
   12.0190   -5.9091   24.4548 C   0  0  0  0  0  0  0  0  0  0  0  0
   12.8247   -6.1948   23.2715 N   0  0  0  0  0  0  0  0  0  0  0  0
   13.3092   -5.3495   22.2741 C   0  0  0  0  0  0  0  0  0  0  0  0
   12.8280   -4.1324   22.1060 N   0  0  0  0  0  0  0  0  0  0  0  0
   13.2555   -3.6701   20.8954 C   0  0  0  0  0  0  0  0  0  0  0  0
   14.0576   -4.5983   20.2981 C   0  0  0  0  0  0  0  0  0  0  0  0
   14.2581   -5.5554   21.2700 N   0  0  0  0  0  0  0  0  0  0  0  0
   15.4677   -6.3508   21.3253 C   0  0  0  0  0  0  0  0  0  0  0  0
   16.6576   -5.7870   20.5435 C   0  0  0  0  0  0  0  0  0  0  0  0
   16.4939   -5.9189   19.2065 F   0  0  0  0  0  0  0  0  0  0  0  0
   16.9017   -4.4838   20.7960 F   0  0  0  0  0  0  0  0  0  0  0  0
   17.7789   -6.4777   20.8686 F   0  0  0  0  0  0  0  0  0  0  0  0
   11.4165   -7.0879   25.2647 C   0  0  0  0  0  0  0  0  0  0  0  0
   11.2207   -6.8277   26.6504 C   0  0  0  0  0  0  0  0  0  0  0  0
   10.3016   -7.5438   27.4496 C   0  0  0  0  0  0  0  0  0  0  0  0
    9.5369   -8.5298   26.8622 C   0  0  0  0  0  0  0  0  0  0  0  0
    9.7285   -8.8578   25.5220 C   0  0  0  0  0  0  0  0  0  0  0  0
   10.6856   -8.1685   24.7156 C   0  0  0  0  0  0  0  0  0  0  0  0
    8.7490   -9.9612   25.2051 C   0  0  0  0  0  0  0  0  0  0  0  0
    7.7939  -10.0419   26.3385 N   0  0  0  0  0  0  0  0  0  0  0  0
    8.4529   -9.3621   27.4710 C   0  0  0  0  0  0  0  0  0  0  0  0
   13.0223   -7.1829   23.2382 H   0  0  0  0  0  0  0  0  0  0  0  0
   12.9460   -2.7071   20.5181 H   0  0  0  0  0  0  0  0  0  0  0  0
   14.5673   -4.5809   19.3446 H   0  0  0  0  0  0  0  0  0  0  0  0
   15.7425   -6.4364   22.3825 H   0  0  0  0  0  0  0  0  0  0  0  0
   15.2095   -7.3488   20.9572 H   0  0  0  0  0  0  0  0  0  0  0  0
   11.7252   -5.9716   27.1030 H   0  0  0  0  0  0  0  0  0  0  0  0
   10.1610   -7.2690   28.4911 H   0  0  0  0  0  0  0  0  0  0  0  0
   10.7775   -8.4025   23.6609 H   0  0  0  0  0  0  0  0  0  0  0  0
    9.2763  -10.9132   25.0891 H   0  0  0  0  0  0  0  0  0  0  0  0
    8.1731   -9.7421   24.3115 H   0  0  0  0  0  0  0  0  0  0  0  0
    6.9867   -9.4701   26.0790 H   0  0  0  0  0  0  0  0  0  0  0  0
    7.7320   -8.7460   28.0174 H   0  0  0  0  0  0  0  0  0  0  0  0
    8.8851  -10.1052   28.1490 H   0  0  0  0  0  0  0  0  0  0  0  0
  1  2  2  0
  2  3  1  0
  3  4  1  0
  4  5  2  0
  5  6  1  0
  6  7  2  0
  7  8  1  0
  8  9  1  0
  9 10  1  0
 10 11  1  0
 10 12  1  0
 10 13  1  0
  2 14  1  0
 14 15  2  0
 15 16  1  0
 16 17  2  0
 17 18  1  0
 18 19  2  0
 18 20  1  0
 20 21  1  0
 21 22  1  0
  8  4  1  0
 19 14  1  0
 22 17  1  0
  3 23  1  0
  6 24  1  0
  7 25  1  0
  9 26  1  0
  9 27  1  0
 15 28  1  0
 16 29  1  0
 19 30  1  0
 20 31  1  0
 20 32  1  0
 21 33  1  0
 22 34  1  0
 22 35  1  0
M  END
>  <Energy>  (604) 
54.104041789405954

>  <compound_id>  (604) 
46571

>  <target_id>  (604) 
1

>  <reference_id>  (604) 
116

>  <inspiration_ids>  (604) 
[116, 146]

>  <energy_score>  (604) 
8.177009295793084

>  <distance_score>  (604) 
9.507018602519276

>  <path>  (604) 
/opt/xchem-fragalysis-2/maxwin/BulkDock/SCRATCH/511023/C46571-P116/C46571-P116.minimised.mol

>  <scratch_subdir>  (604) 
/opt/xchem-fragalysis-2/maxwin/BulkDock/SCRATCH/511023/C46571-P116

>  <fragmenstein_runtime>  (604) 
20.295830011367798

>  <fragmenstein_outcome>  (604) 
too moved

>  <fragmenstein_mode>  (604) 
expansion

>  <fragmenstein_error>  (604) 


$$$$
C46571-P146
     RDKit          3D

 35 37  0  0  0  0  0  0  0  0999 V2000
    3.7343  -10.0487   23.8659 O   0  0  0  0  0  0  0  0  0  0  0  0
    4.2087  -11.0584   24.3169 C   0  0  0  0  0  0  0  0  0  0  0  0
    5.6383  -11.3369   24.8849 N   0  0  0  0  0  0  0  0  0  0  0  0
    6.7919  -10.5079   24.9579 C   0  0  0  0  0  0  0  0  0  0  0  0
    7.9129  -11.2304   25.0478 N   0  0  0  0  0  0  0  0  0  0  0  0
    8.9901  -10.4163   25.2216 C   0  0  0  0  0  0  0  0  0  0  0  0
    8.5686   -9.1277   25.3154 C   0  0  0  0  0  0  0  0  0  0  0  0
    7.1880   -9.1486   25.1288 N   0  0  0  0  0  0  0  0  0  0  0  0
    6.4104   -7.9216   25.2456 C   0  0  0  0  0  0  0  0  0  0  0  0
    7.0164   -6.6010   24.7488 C   0  0  0  0  0  0  0  0  0  0  0  0
    7.1948   -6.5076   23.4252 F   0  0  0  0  0  0  0  0  0  0  0  0
    8.2101   -6.3394   25.3368 F   0  0  0  0  0  0  0  0  0  0  0  0
    6.1868   -5.5865   25.1215 F   0  0  0  0  0  0  0  0  0  0  0  0
    3.0542  -12.5469   24.5135 C   0  0  0  0  0  0  0  0  0  0  0  0
    3.3573  -13.5718   25.8966 C   0  0  0  0  0  0  0  0  0  0  0  0
    2.3528  -14.0254   27.1391 C   0  0  0  0  0  0  0  0  0  0  0  0
    0.8315  -13.8380   26.7911 C   0  0  0  0  0  0  0  0  0  0  0  0
    0.6821  -12.8326   25.2449 C   0  0  0  0  0  0  0  0  0  0  0  0
    1.6506  -12.3166   24.2424 C   0  0  0  0  0  0  0  0  0  0  0  0
   -1.2601  -13.0290   25.6304 C   0  0  0  0  0  0  0  0  0  0  0  0
   -1.8922  -13.3773   26.8790 N   0  0  0  0  0  0  0  0  0  0  0  0
   -0.9686  -14.1624   27.6461 C   0  0  0  0  0  0  0  0  0  0  0  0
    5.6743  -12.2678   25.2550 H   0  0  0  0  0  0  0  0  0  0  0  0
    9.9925  -10.8156   25.3052 H   0  0  0  0  0  0  0  0  0  0  0  0
    9.1287   -8.2295   25.5234 H   0  0  0  0  0  0  0  0  0  0  0  0
    6.2425   -7.8124   26.3253 H   0  0  0  0  0  0  0  0  0  0  0  0
    5.4180   -8.0791   24.8139 H   0  0  0  0  0  0  0  0  0  0  0  0
    4.4082  -13.8885   25.9907 H   0  0  0  0  0  0  0  0  0  0  0  0
    2.7516  -14.6684   27.9294 H   0  0  0  0  0  0  0  0  0  0  0  0
    1.3136  -11.7537   23.3994 H   0  0  0  0  0  0  0  0  0  0  0  0
   -1.9612  -12.2283   25.3307 H   0  0  0  0  0  0  0  0  0  0  0  0
   -1.5542  -13.9488   25.2189 H   0  0  0  0  0  0  0  0  0  0  0  0
   -2.2709  -12.5564   27.3528 H   0  0  0  0  0  0  0  0  0  0  0  0
   -1.3205  -15.2301   27.6998 H   0  0  0  0  0  0  0  0  0  0  0  0
   -1.0962  -13.9750   28.7175 H   0  0  0  0  0  0  0  0  0  0  0  0
  1  2  2  0
  2  3  1  0
  3  4  1  0
  4  5  2  0
  5  6  1  0
  6  7  2  0
  7  8  1  0
  8  9  1  0
  9 10  1  0
 10 11  1  0
 10 12  1  0
 10 13  1  0
  2 14  1  0
 14 15  2  0
 15 16  1  0
 16 17  2  0
 17 18  1  0
 18 19  2  0
 18 20  1  0
 20 21  1  0
 21 22  1  0
  8  4  1  0
 19 14  1  0
 22 17  1  0
  3 23  1  0
  6 24  1  0
  7 25  1  0
  9 26  1  0
  9 27  1  0
 15 28  1  0
 16 29  1  0
 19 30  1  0
 20 31  1  0
 20 32  1  0
 21 33  1  0
 22 34  1  0
 22 35  1  0
M  END
>  <Energy>  (605) 
390.46990480067689

>  <compound_id>  (605) 
46571

>  <target_id>  (605) 
1

>  <reference_id>  (605) 
146

>  <inspiration_ids>  (605) 
[116, 146]

>  <energy_score>  (605) 
344.54287230705916

>  <distance_score>  (605) 
12.787022968919773

>  <path>  (605) 
/opt/xchem-fragalysis-2/maxwin/BulkDock/SCRATCH/511023/C46571-P146/C46571-P146.minimised.mol

>  <scratch_subdir>  (605) 
/opt/xchem-fragalysis-2/maxwin/BulkDock/SCRATCH/511023/C46571-P146

>  <fragmenstein_runtime>  (605) 
14.18733024597168

>  <fragmenstein_outcome>  (605) 
too moved

>  <fragmenstein_mode>  (605) 
expansion

>  <fragmenstein_error>  (605) 


$$$$
C46572-P116
     RDKit          3D

 42 45  0  0  0  0  0  0  0  0999 V2000
   13.3495   -8.8578   22.9948 O   0  0  0  0  0  0  0  0  0  0  0  0
   12.7555   -7.8353   23.1946 C   0  0  0  0  0  0  0  0  0  0  0  0
   11.5694   -7.5730   23.9741 N   0  0  0  0  0  0  0  0  0  0  0  0
   10.7233   -8.4219   24.6377 C   0  0  0  0  0  0  0  0  0  0  0  0
    9.5400   -8.0706   25.1106 N   0  0  0  0  0  0  0  0  0  0  0  0
    8.9689   -9.2191   25.6149 C   0  0  0  0  0  0  0  0  0  0  0  0
    7.5683   -9.2995   26.2791 C   0  0  0  0  0  0  0  0  0  0  0  0
    7.4258   -8.9159   27.7281 C   0  0  0  0  0  0  0  0  0  0  0  0
    6.8621   -8.0249   26.6594 C   0  0  0  0  0  0  0  0  0  0  0  0
    9.7988  -10.2930   25.4167 C   0  0  0  0  0  0  0  0  0  0  0  0
   10.9056   -9.7743   24.7858 N   0  0  0  0  0  0  0  0  0  0  0  0
   13.2882   -6.6015   22.3997 C   0  0  0  0  0  0  0  0  0  0  0  0
   12.6201   -5.3791   22.3036 C   0  0  0  0  0  0  0  0  0  0  0  0
   12.9096   -4.4696   21.2737 C   0  0  0  0  0  0  0  0  0  0  0  0
   13.8930   -4.7197   20.3128 C   0  0  0  0  0  0  0  0  0  0  0  0
   14.7441   -5.8075   20.5261 C   0  0  0  0  0  0  0  0  0  0  0  0
   14.4107   -6.7479   21.5515 C   0  0  0  0  0  0  0  0  0  0  0  0
   15.9966   -6.0546   19.7093 C   0  0  0  0  0  0  0  0  0  0  0  0
   16.4732   -5.0167   18.6768 C   0  0  0  0  0  0  0  0  0  0  0  0
   16.3619   -3.5696   19.1549 C   0  0  0  0  0  0  0  0  0  0  0  0
   15.0494   -2.9479   18.9564 N   0  0  0  0  0  0  0  0  0  0  0  0
   13.9348   -3.8880   19.0538 C   0  0  0  0  0  0  0  0  0  0  0  0
   11.3984   -6.5871   23.9876 H   0  0  0  0  0  0  0  0  0  0  0  0
    6.9508  -10.1131   25.9157 H   0  0  0  0  0  0  0  0  0  0  0  0
    8.3055   -8.5715   28.2593 H   0  0  0  0  0  0  0  0  0  0  0  0
    6.7330   -9.4874   28.3339 H   0  0  0  0  0  0  0  0  0  0  0  0
    7.3579   -7.0808   26.4618 H   0  0  0  0  0  0  0  0  0  0  0  0
    5.7879   -7.9878   26.5252 H   0  0  0  0  0  0  0  0  0  0  0  0
    9.7109  -11.3448   25.6490 H   0  0  0  0  0  0  0  0  0  0  0  0
   11.7229  -10.2800   24.4703 H   0  0  0  0  0  0  0  0  0  0  0  0
   11.8217   -5.0789   22.9663 H   0  0  0  0  0  0  0  0  0  0  0  0
   12.3025   -3.5724   21.2034 H   0  0  0  0  0  0  0  0  0  0  0  0
   15.0097   -7.6565   21.6287 H   0  0  0  0  0  0  0  0  0  0  0  0
   16.8137   -6.1634   20.4370 H   0  0  0  0  0  0  0  0  0  0  0  0
   15.9079   -7.0270   19.2121 H   0  0  0  0  0  0  0  0  0  0  0  0
   15.9572   -5.1463   17.7197 H   0  0  0  0  0  0  0  0  0  0  0  0
   17.5276   -5.2323   18.4589 H   0  0  0  0  0  0  0  0  0  0  0  0
   17.0952   -2.9615   18.6114 H   0  0  0  0  0  0  0  0  0  0  0  0
   16.6429   -3.4956   20.2124 H   0  0  0  0  0  0  0  0  0  0  0  0
   15.0232   -2.5484   18.0194 H   0  0  0  0  0  0  0  0  0  0  0  0
   13.8940   -4.5519   18.1817 H   0  0  0  0  0  0  0  0  0  0  0  0
   13.0144   -3.3036   18.9733 H   0  0  0  0  0  0  0  0  0  0  0  0
  1  2  2  0
  2  3  1  0
  3  4  1  0
  4  5  2  0
  5  6  1  0
  6  7  1  0
  7  8  1  0
  8  9  1  0
  6 10  2  0
 10 11  1  0
  2 12  1  0
 12 13  2  0
 13 14  1  0
 14 15  2  0
 15 16  1  0
 16 17  2  0
 16 18  1  0
 18 19  1  0
 19 20  1  0
 20 21  1  0
 21 22  1  0
 11  4  1  0
 17 12  1  0
  9  7  1  0
 22 15  1  0
  3 23  1  0
  7 24  1  0
  8 25  1  0
  8 26  1  0
  9 27  1  0
  9 28  1  0
 10 29  1  0
 11 30  1  0
 13 31  1  0
 14 32  1  0
 17 33  1  0
 18 34  1  0
 18 35  1  0
 19 36  1  0
 19 37  1  0
 20 38  1  0
 20 39  1  0
 21 40  1  0
 22 41  1  0
 22 42  1  0
M  END
>  <Energy>  (606) 
27.524182785140219

>  <compound_id>  (606) 
46572

>  <target_id>  (606) 
1

>  <reference_id>  (606) 
116

>  <inspiration_ids>  (606) 
[116, 146]

>  <energy_score>  (606) 
-58.63966173032179

>  <distance_score>  (606) 
8.690685597181545

>  <path>  (606) 
/opt/xchem-fragalysis-2/maxwin/BulkDock/SCRATCH/511023/C46572-P116/C46572-P116.minimised.mol

>  <scratch_subdir>  (606) 
/opt/xchem-fragalysis-2/maxwin/BulkDock/SCRATCH/511023/C46572-P116

>  <fragmenstein_runtime>  (606) 
14.388915538787842

>  <fragmenstein_outcome>  (606) 
too moved

>  <fragmenstein_mode>  (606) 
expansion

>  <fragmenstein_error>  (606) 


$$$$
C46572-P146
     RDKit          3D

 42 45  0  0  0  0  0  0  0  0999 V2000
    4.2170   -7.6772   25.8549 O   0  0  0  0  0  0  0  0  0  0  0  0
    4.4231   -6.9119   26.7546 C   0  0  0  0  0  0  0  0  0  0  0  0
    3.6435   -6.6264   27.9561 N   0  0  0  0  0  0  0  0  0  0  0  0
    2.4901   -7.2249   28.4524 C   0  0  0  0  0  0  0  0  0  0  0  0
    2.2931   -8.5141   28.1221 N   0  0  0  0  0  0  0  0  0  0  0  0
    1.8560   -9.2345   29.2666 C   0  0  0  0  0  0  0  0  0  0  0  0
    2.9965  -11.0072   29.8525 C   0  0  0  0  0  0  0  0  0  0  0  0
    3.3298  -12.3185   29.4240 C   0  0  0  0  0  0  0  0  0  0  0  0
    3.0254  -12.1178   30.8454 C   0  0  0  0  0  0  0  0  0  0  0  0
    1.0228   -8.2687   29.8980 C   0  0  0  0  0  0  0  0  0  0  0  0
    1.5461   -6.9716   29.4738 N   0  0  0  0  0  0  0  0  0  0  0  0
    5.8009   -6.2563   26.5805 C   0  0  0  0  0  0  0  0  0  0  0  0
    6.7715   -7.1541   26.0698 C   0  0  0  0  0  0  0  0  0  0  0  0
    8.1414   -6.8810   26.0682 C   0  0  0  0  0  0  0  0  0  0  0  0
    8.6313   -5.6577   26.5297 C   0  0  0  0  0  0  0  0  0  0  0  0
    7.6812   -4.6670   26.8872 C   0  0  0  0  0  0  0  0  0  0  0  0
    6.2708   -4.9887   26.9322 C   0  0  0  0  0  0  0  0  0  0  0  0
    8.0885   -3.2225   27.1388 C   0  0  0  0  0  0  0  0  0  0  0  0
    9.4728   -2.9782   27.7367 C   0  0  0  0  0  0  0  0  0  0  0  0
   10.6620   -3.1366   26.7954 C   0  0  0  0  0  0  0  0  0  0  0  0
   10.7336   -4.3541   26.0021 N   0  0  0  0  0  0  0  0  0  0  0  0
   10.1461   -5.5193   26.6466 C   0  0  0  0  0  0  0  0  0  0  0  0
    4.0755   -5.8604   28.4560 H   0  0  0  0  0  0  0  0  0  0  0  0
    3.3721  -10.6450   30.7565 H   0  0  0  0  0  0  0  0  0  0  0  0
    3.3612  -13.3871   29.6106 H   0  0  0  0  0  0  0  0  0  0  0  0
    4.1411  -12.3245   28.7559 H   0  0  0  0  0  0  0  0  0  0  0  0
    2.1172  -12.2414   31.3702 H   0  0  0  0  0  0  0  0  0  0  0  0
    3.8233  -12.2091   31.5845 H   0  0  0  0  0  0  0  0  0  0  0  0
    0.4121   -8.2748   30.7897 H   0  0  0  0  0  0  0  0  0  0  0  0
    1.3592   -6.0864   29.9249 H   0  0  0  0  0  0  0  0  0  0  0  0
    6.4654   -8.1385   25.7071 H   0  0  0  0  0  0  0  0  0  0  0  0
    8.8178   -7.6628   25.7311 H   0  0  0  0  0  0  0  0  0  0  0  0
    5.5641   -4.2239   27.2418 H   0  0  0  0  0  0  0  0  0  0  0  0
    7.9653   -2.6398   26.2207 H   0  0  0  0  0  0  0  0  0  0  0  0
    7.3676   -2.8069   27.8563 H   0  0  0  0  0  0  0  0  0  0  0  0
    9.6068   -3.6181   28.6186 H   0  0  0  0  0  0  0  0  0  0  0  0
    9.4980   -1.9481   28.1167 H   0  0  0  0  0  0  0  0  0  0  0  0
   11.5797   -3.0643   27.3917 H   0  0  0  0  0  0  0  0  0  0  0  0
   10.6907   -2.2825   26.1075 H   0  0  0  0  0  0  0  0  0  0  0  0
   10.1583   -4.2072   25.1688 H   0  0  0  0  0  0  0  0  0  0  0  0
   10.4383   -5.5938   27.7017 H   0  0  0  0  0  0  0  0  0  0  0  0
   10.6122   -6.3889   26.1663 H   0  0  0  0  0  0  0  0  0  0  0  0
  1  2  2  0
  2  3  1  0
  3  4  1  0
  4  5  2  0
  5  6  1  0
  6  7  1  0
  7  8  1  0
  8  9  1  0
  6 10  2  0
 10 11  1  0
  2 12  1  0
 12 13  2  0
 13 14  1  0
 14 15  2  0
 15 16  1  0
 16 17  2  0
 16 18  1  0
 18 19  1  0
 19 20  1  0
 20 21  1  0
 21 22  1  0
 11  4  1  0
 17 12  1  0
  9  7  1  0
 22 15  1  0
  3 23  1  0
  7 24  1  0
  8 25  1  0
  8 26  1  0
  9 27  1  0
  9 28  1  0
 10 29  1  0
 11 30  1  0
 13 31  1  0
 14 32  1  0
 17 33  1  0
 18 34  1  0
 18 35  1  0
 19 36  1  0
 19 37  1  0
 20 38  1  0
 20 39  1  0
 21 40  1  0
 22 41  1  0
 22 42  1  0
M  END
>  <Energy>  (607) 
281.47341205386181

>  <compound_id>  (607) 
46572

>  <target_id>  (607) 
1

>  <reference_id>  (607) 
146

>  <inspiration_ids>  (607) 
[116, 146]

>  <energy_score>  (607) 
195.30956753840815

>  <distance_score>  (607) 
11.176684797318584

>  <path>  (607) 
/opt/xchem-fragalysis-2/maxwin/BulkDock/SCRATCH/511023/C46572-P146/C46572-P146.minimised.mol

>  <scratch_subdir>  (607) 
/opt/xchem-fragalysis-2/maxwin/BulkDock/SCRATCH/511023/C46572-P146

>  <fragmenstein_runtime>  (607) 
17.439762592315674

>  <fragmenstein_outcome>  (607) 
too moved

>  <fragmenstein_mode>  (607) 
expansion

>  <fragmenstein_error>  (607) 


$$$$
C46573-P116
     RDKit          3D

 39 42  0  0  0  0  0  0  0  0999 V2000
    9.3533   -8.2214   19.7922 O   0  0  0  0  0  0  0  0  0  0  0  0
   10.3253   -8.8772   19.9013 C   0  0  0  0  0  0  0  0  0  0  0  0
   10.7703  -10.3467   18.9320 N   0  0  0  0  0  0  0  0  0  0  0  0
   10.0273  -11.0566   17.9451 C   0  0  0  0  0  0  0  0  0  0  0  0
    8.7127  -11.1115   17.8188 N   0  0  0  0  0  0  0  0  0  0  0  0
    8.4171  -12.4514   17.6666 C   0  0  0  0  0  0  0  0  0  0  0  0
    7.0496  -13.1523   17.9111 C   0  0  0  0  0  0  0  0  0  0  0  0
    7.0212  -14.3396   18.8508 C   0  0  0  0  0  0  0  0  0  0  0  0
    6.3451  -13.0612   19.2328 C   0  0  0  0  0  0  0  0  0  0  0  0
    9.5564  -13.1441   17.3552 C   0  0  0  0  0  0  0  0  0  0  0  0
   10.5568  -12.2100   17.4100 N   0  0  0  0  0  0  0  0  0  0  0  0
   11.3334   -8.3529   21.2936 C   0  0  0  0  0  0  0  0  0  0  0  0
   12.3611   -9.1396   21.8283 C   0  0  0  0  0  0  0  0  0  0  0  0
   13.5821   -8.5209   22.1907 C   0  0  0  0  0  0  0  0  0  0  0  0
   13.7926   -7.1385   21.9949 C   0  0  0  0  0  0  0  0  0  0  0  0
   12.7109   -6.3226   21.6713 C   0  0  0  0  0  0  0  0  0  0  0  0
   11.4727   -6.9363   21.4381 C   0  0  0  0  0  0  0  0  0  0  0  0
   12.8868   -4.8707   21.2539 C   0  0  0  0  0  0  0  0  0  0  0  0
   14.2215   -4.3171   21.4977 N   0  0  0  0  0  0  0  0  0  0  0  0
   15.2510   -5.2815   21.1099 C   0  0  0  0  0  0  0  0  0  0  0  0
   15.1724   -6.5236   22.0171 C   0  0  0  0  0  0  0  0  0  0  0  0
   11.6253  -10.7578   19.2976 H   0  0  0  0  0  0  0  0  0  0  0  0
    6.4332  -13.2271   17.0219 H   0  0  0  0  0  0  0  0  0  0  0  0
    7.9129  -14.6065   19.4057 H   0  0  0  0  0  0  0  0  0  0  0  0
    6.3961  -15.1817   18.5800 H   0  0  0  0  0  0  0  0  0  0  0  0
    6.7816  -12.4597   20.0171 H   0  0  0  0  0  0  0  0  0  0  0  0
    5.2627  -13.0543   19.2288 H   0  0  0  0  0  0  0  0  0  0  0  0
    9.7443  -14.1884   17.1506 H   0  0  0  0  0  0  0  0  0  0  0  0
   11.5383  -12.4243   17.3420 H   0  0  0  0  0  0  0  0  0  0  0  0
   12.3058  -10.2231   21.8100 H   0  0  0  0  0  0  0  0  0  0  0  0
   14.4190   -9.1489   22.4945 H   0  0  0  0  0  0  0  0  0  0  0  0
   10.7153   -6.2662   21.0372 H   0  0  0  0  0  0  0  0  0  0  0  0
   12.6912   -4.8092   20.1770 H   0  0  0  0  0  0  0  0  0  0  0  0
   12.1501   -4.2522   21.7776 H   0  0  0  0  0  0  0  0  0  0  0  0
   14.3231   -3.4650   20.9508 H   0  0  0  0  0  0  0  0  0  0  0  0
   15.1445   -5.5583   20.0532 H   0  0  0  0  0  0  0  0  0  0  0  0
   16.2375   -4.8195   21.2260 H   0  0  0  0  0  0  0  0  0  0  0  0
   15.4202   -6.2566   23.0517 H   0  0  0  0  0  0  0  0  0  0  0  0
   15.9116   -7.2562   21.6724 H   0  0  0  0  0  0  0  0  0  0  0  0
  1  2  2  0
  2  3  1  0
  3  4  1  0
  4  5  2  0
  5  6  1  0
  6  7  1  0
  7  8  1  0
  8  9  1  0
  6 10  2  0
 10 11  1  0
  2 12  1  0
 12 13  2  0
 13 14  1  0
 14 15  2  0
 15 16  1  0
 16 17  2  0
 16 18  1  0
 18 19  1  0
 19 20  1  0
 20 21  1  0
 11  4  1  0
 17 12  1  0
  9  7  1  0
 21 15  1  0
  3 22  1  0
  7 23  1  0
  8 24  1  0
  8 25  1  0
  9 26  1  0
  9 27  1  0
 10 28  1  0
 11 29  1  0
 13 30  1  0
 14 31  1  0
 17 32  1  0
 18 33  1  0
 18 34  1  0
 19 35  1  0
 20 36  1  0
 20 37  1  0
 21 38  1  0
 21 39  1  0
M  END
>  <Energy>  (608) 
145.15507757843159

>  <compound_id>  (608) 
46573

>  <target_id>  (608) 
1

>  <reference_id>  (608) 
116

>  <inspiration_ids>  (608) 
[116, 146]

>  <energy_score>  (608) 
108.99540589036994

>  <distance_score>  (608) 
11.004990647755626

>  <path>  (608) 
/opt/xchem-fragalysis-2/maxwin/BulkDock/SCRATCH/511023/C46573-P116/C46573-P116.minimised.mol

>  <scratch_subdir>  (608) 
/opt/xchem-fragalysis-2/maxwin/BulkDock/SCRATCH/511023/C46573-P116

>  <fragmenstein_runtime>  (608) 
13.451425313949585

>  <fragmenstein_outcome>  (608) 
too moved

>  <fragmenstein_mode>  (608) 
expansion

>  <fragmenstein_error>  (608) 


$$$$
C46573-P146
     RDKit          3D

 39 42  0  0  0  0  0  0  0  0999 V2000
    6.7972   -6.9549   24.0912 O   0  0  0  0  0  0  0  0  0  0  0  0
    6.0783   -7.2120   23.1245 C   0  0  0  0  0  0  0  0  0  0  0  0
    4.5304   -8.3327   23.2131 N   0  0  0  0  0  0  0  0  0  0  0  0
    3.8375   -9.3540   24.5388 C   0  0  0  0  0  0  0  0  0  0  0  0
    2.5226  -10.2022   24.9943 N   0  0  0  0  0  0  0  0  0  0  0  0
    1.5936  -11.8430   24.7731 C   0  0  0  0  0  0  0  0  0  0  0  0
    0.0317  -12.8921   26.0424 C   0  0  0  0  0  0  0  0  0  0  0  0
   -1.6892  -12.2050   26.7527 C   0  0  0  0  0  0  0  0  0  0  0  0
   -1.6646  -13.3066   25.9387 C   0  0  0  0  0  0  0  0  0  0  0  0
    2.6644  -12.1003   23.9209 C   0  0  0  0  0  0  0  0  0  0  0  0
    3.8014  -10.8909   23.8146 N   0  0  0  0  0  0  0  0  0  0  0  0
    6.9178   -6.4369   21.3912 C   0  0  0  0  0  0  0  0  0  0  0  0
    7.3782   -7.5711   20.1006 C   0  0  0  0  0  0  0  0  0  0  0  0
    9.3120   -7.7059   19.9082 C   0  0  0  0  0  0  0  0  0  0  0  0
   10.2730   -6.1524   20.1599 C   0  0  0  0  0  0  0  0  0  0  0  0
    9.4993   -5.3201   19.5814 C   0  0  0  0  0  0  0  0  0  0  0  0
    7.8036   -4.9740   20.4598 C   0  0  0  0  0  0  0  0  0  0  0  0
   10.7960   -4.8808   17.9336 C   0  0  0  0  0  0  0  0  0  0  0  0
   12.4430   -4.5709   18.2829 N   0  0  0  0  0  0  0  0  0  0  0  0
   12.7906   -4.9019   19.6710 C   0  0  0  0  0  0  0  0  0  0  0  0
   11.7429   -5.6350   20.5927 C   0  0  0  0  0  0  0  0  0  0  0  0
    4.0962   -8.3275   22.3906 H   0  0  0  0  0  0  0  0  0  0  0  0
    0.5383  -13.6159   26.7188 H   0  0  0  0  0  0  0  0  0  0  0  0
   -1.9339  -11.2161   26.5020 H   0  0  0  0  0  0  0  0  0  0  0  0
   -2.2375  -12.4257   27.6827 H   0  0  0  0  0  0  0  0  0  0  0  0
   -1.9493  -14.1858   26.5215 H   0  0  0  0  0  0  0  0  0  0  0  0
   -2.5841  -12.8802   25.5455 H   0  0  0  0  0  0  0  0  0  0  0  0
    3.0240  -12.9589   23.3837 H   0  0  0  0  0  0  0  0  0  0  0  0
    4.6387  -11.0724   23.3040 H   0  0  0  0  0  0  0  0  0  0  0  0
    6.9916   -7.1008   19.1567 H   0  0  0  0  0  0  0  0  0  0  0  0
    9.8720   -8.6033   20.2109 H   0  0  0  0  0  0  0  0  0  0  0  0
    7.8536   -4.0734   21.0764 H   0  0  0  0  0  0  0  0  0  0  0  0
   11.0495   -5.5722   17.0795 H   0  0  0  0  0  0  0  0  0  0  0  0
   10.7535   -4.0347   17.2129 H   0  0  0  0  0  0  0  0  0  0  0  0
   12.9683   -5.1619   17.6392 H   0  0  0  0  0  0  0  0  0  0  0  0
   13.7647   -5.3992   19.7092 H   0  0  0  0  0  0  0  0  0  0  0  0
   13.0359   -3.9491   20.1588 H   0  0  0  0  0  0  0  0  0  0  0  0
   11.5733   -4.8041   21.2897 H   0  0  0  0  0  0  0  0  0  0  0  0
   12.1882   -6.2920   21.3033 H   0  0  0  0  0  0  0  0  0  0  0  0
  1  2  2  0
  2  3  1  0
  3  4  1  0
  4  5  2  0
  5  6  1  0
  6  7  1  0
  7  8  1  0
  8  9  1  0
  6 10  2  0
 10 11  1  0
  2 12  1  0
 12 13  2  0
 13 14  1  0
 14 15  2  0
 15 16  1  0
 16 17  2  0
 16 18  1  0
 18 19  1  0
 19 20  1  0
 20 21  1  0
 11  4  1  0
 17 12  1  0
  9  7  1  0
 21 15  1  0
  3 22  1  0
  7 23  1  0
  8 24  1  0
  8 25  1  0
  9 26  1  0
  9 27  1  0
 10 28  1  0
 11 29  1  0
 13 30  1  0
 14 31  1  0
 17 32  1  0
 18 33  1  0
 18 34  1  0
 19 35  1  0
 20 36  1  0
 20 37  1  0
 21 38  1  0
 21 39  1  0
M  END
>  <Energy>  (609) 
1554.2580749383119

>  <compound_id>  (609) 
46573

>  <target_id>  (609) 
1

>  <reference_id>  (609) 
146

>  <inspiration_ids>  (609) 
[116, 146]

>  <energy_score>  (609) 
1518.0984032502574

>  <distance_score>  (609) 
6.9507246978641435

>  <path>  (609) 
/opt/xchem-fragalysis-2/maxwin/BulkDock/SCRATCH/511023/C46573-P146/C46573-P146.minimised.mol

>  <scratch_subdir>  (609) 
/opt/xchem-fragalysis-2/maxwin/BulkDock/SCRATCH/511023/C46573-P146

>  <fragmenstein_runtime>  (609) 
16.185779809951782

>  <fragmenstein_outcome>  (609) 
too moved

>  <fragmenstein_mode>  (609) 
expansion

>  <fragmenstein_error>  (609) 


$$$$
C46576-P116
     RDKit          3D

 41 44  0  0  0  0  0  0  0  0999 V2000
   12.2225   -4.3498   23.2882 O   0  0  0  0  0  0  0  0  0  0  0  0
   12.4659   -5.3423   22.6883 C   0  0  0  0  0  0  0  0  0  0  0  0
   12.0764   -6.8747   23.0078 N   0  0  0  0  0  0  0  0  0  0  0  0
   11.2024   -7.4636   24.1140 C   0  0  0  0  0  0  0  0  0  0  0  0
   10.5151   -6.7573   25.1216 C   0  0  0  0  0  0  0  0  0  0  0  0
    9.3348   -7.3025   25.8458 C   0  0  0  0  0  0  0  0  0  0  0  0
    8.8574   -8.6093   25.6447 C   0  0  0  0  0  0  0  0  0  0  0  0
    7.5592   -9.1578   26.2801 N   0  0  0  0  0  0  0  0  0  0  0  0
    6.6037   -8.4882   27.0538 C   0  0  0  0  0  0  0  0  0  0  0  0
    5.7581   -9.4369   27.5928 C   0  0  0  0  0  0  0  0  0  0  0  0
    6.0817  -10.6787   27.1301 N   0  0  0  0  0  0  0  0  0  0  0  0
    7.0892  -10.4791   26.2926 C   0  0  0  0  0  0  0  0  0  0  0  0
    9.6393   -9.3691   24.8169 N   0  0  0  0  0  0  0  0  0  0  0  0
   10.7675   -8.7968   24.1218 C   0  0  0  0  0  0  0  0  0  0  0  0
   13.2688   -4.9708   21.2713 C   0  0  0  0  0  0  0  0  0  0  0  0
   14.3998   -4.1318   21.3080 C   0  0  0  0  0  0  0  0  0  0  0  0
   14.9447   -3.4328   20.1583 C   0  0  0  0  0  0  0  0  0  0  0  0
   14.3664   -3.4792   18.8796 C   0  0  0  0  0  0  0  0  0  0  0  0
   13.2265   -4.2644   18.7588 C   0  0  0  0  0  0  0  0  0  0  0  0
   12.7253   -4.9970   19.9588 C   0  0  0  0  0  0  0  0  0  0  0  0
   12.5614   -4.3036   17.3729 C   0  0  0  0  0  0  0  0  0  0  0  0
   12.7110   -3.0611   16.5714 N   0  0  0  0  0  0  0  0  0  0  0  0
   14.1453   -2.8216   16.3799 C   0  0  0  0  0  0  0  0  0  0  0  0
   14.8716   -2.6220   17.7266 C   0  0  0  0  0  0  0  0  0  0  0  0
   12.3733   -7.4680   22.2428 H   0  0  0  0  0  0  0  0  0  0  0  0
   10.7617   -5.7067   25.2972 H   0  0  0  0  0  0  0  0  0  0  0  0
    8.8163   -6.6247   26.5220 H   0  0  0  0  0  0  0  0  0  0  0  0
    6.6418   -7.4161   27.1751 H   0  0  0  0  0  0  0  0  0  0  0  0
    4.9392   -9.2769   28.2783 H   0  0  0  0  0  0  0  0  0  0  0  0
    7.5919  -11.2392   25.7099 H   0  0  0  0  0  0  0  0  0  0  0  0
   11.2526   -9.5250   23.4725 H   0  0  0  0  0  0  0  0  0  0  0  0
   14.8593   -3.9330   22.2775 H   0  0  0  0  0  0  0  0  0  0  0  0
   15.8113   -2.7933   20.3272 H   0  0  0  0  0  0  0  0  0  0  0  0
   11.7748   -5.5008   19.8916 H   0  0  0  0  0  0  0  0  0  0  0  0
   11.4978   -4.4978   17.4698 H   0  0  0  0  0  0  0  0  0  0  0  0
   12.9769   -5.1364   16.8003 H   0  0  0  0  0  0  0  0  0  0  0  0
   12.2886   -3.2354   15.6596 H   0  0  0  0  0  0  0  0  0  0  0  0
   14.2927   -1.9355   15.7528 H   0  0  0  0  0  0  0  0  0  0  0  0
   14.5929   -3.6668   15.8407 H   0  0  0  0  0  0  0  0  0  0  0  0
   15.9421   -2.8117   17.5848 H   0  0  0  0  0  0  0  0  0  0  0  0
   14.7604   -1.5742   18.0291 H   0  0  0  0  0  0  0  0  0  0  0  0
  1  2  2  0
  2  3  1  0
  3  4  1  0
  4  5  2  0
  5  6  1  0
  6  7  2  0
  7  8  1  0
  8  9  1  0
  9 10  2  0
 10 11  1  0
 11 12  2  0
  7 13  1  0
 13 14  2  0
  2 15  1  0
 15 16  2  0
 16 17  1  0
 17 18  2  0
 18 19  1  0
 19 20  2  0
 19 21  1  0
 21 22  1  0
 22 23  1  0
 23 24  1  0
 14  4  1  0
 20 15  1  0
 12  8  1  0
 24 18  1  0
  3 25  1  0
  5 26  1  0
  6 27  1  0
  9 28  1  0
 10 29  1  0
 12 30  1  0
 14 31  1  0
 16 32  1  0
 17 33  1  0
 20 34  1  0
 21 35  1  0
 21 36  1  0
 22 37  1  0
 23 38  1  0
 23 39  1  0
 24 40  1  0
 24 41  1  0
M  END
>  <Energy>  (610) 
171.78864933868633

>  <compound_id>  (610) 
46576

>  <target_id>  (610) 
1

>  <reference_id>  (610) 
116

>  <inspiration_ids>  (610) 
[116, 146]

>  <energy_score>  (610) 
26.78178418157006

>  <distance_score>  (610) 
5.77618933467196

>  <path>  (610) 
/opt/xchem-fragalysis-2/maxwin/BulkDock/SCRATCH/511023/C46576-P116/C46576-P116.minimised.mol

>  <scratch_subdir>  (610) 
/opt/xchem-fragalysis-2/maxwin/BulkDock/SCRATCH/511023/C46576-P116

>  <fragmenstein_runtime>  (610) 
9.384310722351074

>  <fragmenstein_outcome>  (610) 
too moved

>  <fragmenstein_mode>  (610) 
expansion

>  <fragmenstein_error>  (610) 


$$$$
C46576-P146
     RDKit          3D

 41 44  0  0  0  0  0  0  0  0999 V2000
   10.1742   -5.1694   20.6814 O   0  0  0  0  0  0  0  0  0  0  0  0
   10.6115   -6.1185   20.3196 C   0  0  0  0  0  0  0  0  0  0  0  0
    9.2829   -7.5397   20.0633 N   0  0  0  0  0  0  0  0  0  0  0  0
    7.2643   -7.5012   20.5358 C   0  0  0  0  0  0  0  0  0  0  0  0
    6.6541   -7.3188   22.1708 C   0  0  0  0  0  0  0  0  0  0  0  0
    6.2006   -7.0306   23.7848 C   0  0  0  0  0  0  0  0  0  0  0  0
    6.6067   -5.9496   24.3452 C   0  0  0  0  0  0  0  0  0  0  0  0
    6.0333   -5.5860   25.5775 N   0  0  0  0  0  0  0  0  0  0  0  0
    5.4816   -6.4645   26.5122 C   0  0  0  0  0  0  0  0  0  0  0  0
    4.8220   -5.6862   27.4265 C   0  0  0  0  0  0  0  0  0  0  0  0
    4.9876   -4.3652   27.1280 N   0  0  0  0  0  0  0  0  0  0  0  0
    5.7502   -4.3349   26.0490 C   0  0  0  0  0  0  0  0  0  0  0  0
    7.0379   -5.3039   23.3003 N   0  0  0  0  0  0  0  0  0  0  0  0
    7.1862   -6.1025   21.7807 C   0  0  0  0  0  0  0  0  0  0  0  0
   12.3263   -5.9414   20.2820 C   0  0  0  0  0  0  0  0  0  0  0  0
   13.0594   -5.6666   21.4549 C   0  0  0  0  0  0  0  0  0  0  0  0
   14.2733   -4.9036   21.4821 C   0  0  0  0  0  0  0  0  0  0  0  0
   14.7823   -4.2427   20.3535 C   0  0  0  0  0  0  0  0  0  0  0  0
   14.0458   -4.2929   19.1927 C   0  0  0  0  0  0  0  0  0  0  0  0
   12.8648   -5.0502   19.2139 C   0  0  0  0  0  0  0  0  0  0  0  0
   14.4443   -3.5635   17.9314 C   0  0  0  0  0  0  0  0  0  0  0  0
   15.3678   -2.4519   18.1663 N   0  0  0  0  0  0  0  0  0  0  0  0
   16.4765   -2.9112   19.0090 C   0  0  0  0  0  0  0  0  0  0  0  0
   15.9945   -3.3498   20.4062 C   0  0  0  0  0  0  0  0  0  0  0  0
    9.7610   -8.3921   19.8183 H   0  0  0  0  0  0  0  0  0  0  0  0
    5.5868   -7.6855   22.1100 H   0  0  0  0  0  0  0  0  0  0  0  0
    5.3488   -7.5994   24.1597 H   0  0  0  0  0  0  0  0  0  0  0  0
    5.6050   -7.5326   26.4189 H   0  0  0  0  0  0  0  0  0  0  0  0
    4.2510   -5.9923   28.2907 H   0  0  0  0  0  0  0  0  0  0  0  0
    6.0993   -3.4463   25.5409 H   0  0  0  0  0  0  0  0  0  0  0  0
    7.6687   -5.1238   21.2966 H   0  0  0  0  0  0  0  0  0  0  0  0
   12.7283   -6.0288   22.4213 H   0  0  0  0  0  0  0  0  0  0  0  0
   14.7769   -4.7811   22.4410 H   0  0  0  0  0  0  0  0  0  0  0  0
   12.2995   -4.8682   18.2998 H   0  0  0  0  0  0  0  0  0  0  0  0
   13.5527   -3.1536   17.4434 H   0  0  0  0  0  0  0  0  0  0  0  0
   14.8968   -4.2857   17.2403 H   0  0  0  0  0  0  0  0  0  0  0  0
   15.7339   -2.1302   17.2721 H   0  0  0  0  0  0  0  0  0  0  0  0
   17.2026   -2.0987   19.1239 H   0  0  0  0  0  0  0  0  0  0  0  0
   17.0031   -3.7380   18.5147 H   0  0  0  0  0  0  0  0  0  0  0  0
   16.8121   -3.8668   20.9216 H   0  0  0  0  0  0  0  0  0  0  0  0
   15.7350   -2.4588   20.9919 H   0  0  0  0  0  0  0  0  0  0  0  0
  1  2  2  0
  2  3  1  0
  3  4  1  0
  4  5  2  0
  5  6  1  0
  6  7  2  0
  7  8  1  0
  8  9  1  0
  9 10  2  0
 10 11  1  0
 11 12  2  0
  7 13  1  0
 13 14  2  0
  2 15  1  0
 15 16  2  0
 16 17  1  0
 17 18  2  0
 18 19  1  0
 19 20  2  0
 19 21  1  0
 21 22  1  0
 22 23  1  0
 23 24  1  0
 14  4  1  0
 20 15  1  0
 12  8  1  0
 24 18  1  0
  3 25  1  0
  5 26  1  0
  6 27  1  0
  9 28  1  0
 10 29  1  0
 12 30  1  0
 14 31  1  0
 16 32  1  0
 17 33  1  0
 20 34  1  0
 21 35  1  0
 21 36  1  0
 22 37  1  0
 23 38  1  0
 23 39  1  0
 24 40  1  0
 24 41  1  0
M  END
>  <Energy>  (611) 
821.66730547806594

>  <compound_id>  (611) 
46576

>  <target_id>  (611) 
1

>  <reference_id>  (611) 
146

>  <inspiration_ids>  (611) 
[116, 146]

>  <energy_score>  (611) 
678.5645225180288

>  <distance_score>  (611) 
7.341427302791694

>  <path>  (611) 
/opt/xchem-fragalysis-2/maxwin/BulkDock/SCRATCH/511023/C46576-P146/C46576-P146.minimised.mol

>  <scratch_subdir>  (611) 
/opt/xchem-fragalysis-2/maxwin/BulkDock/SCRATCH/511023/C46576-P146

>  <fragmenstein_runtime>  (611) 
17.273115396499634

>  <fragmenstein_outcome>  (611) 
too moved

>  <fragmenstein_mode>  (611) 
expansion

>  <fragmenstein_error>  (611) 


$$$$
C46578-P116
     RDKit          3D

 42 45  0  0  0  0  0  0  0  0999 V2000
    9.4449   -6.6494   19.7973 O   0  0  0  0  0  0  0  0  0  0  0  0
    9.8133   -7.5905   20.4639 C   0  0  0  0  0  0  0  0  0  0  0  0
    9.4289   -8.8569   20.4762 N   0  0  0  0  0  0  0  0  0  0  0  0
    7.8213   -9.9049   19.4320 C   0  0  0  0  0  0  0  0  0  0  0  0
    7.0249  -11.5980   20.5648 C   0  0  0  0  0  0  0  0  0  0  0  0
    5.4061  -11.3040   21.1358 C   0  0  0  0  0  0  0  0  0  0  0  0
    3.7401  -12.0304   22.3306 C   0  0  0  0  0  0  0  0  0  0  0  0
    3.2148  -13.2629   22.8306 N   0  0  0  0  0  0  0  0  0  0  0  0
    3.0547  -13.1008   24.1980 C   0  0  0  0  0  0  0  0  0  0  0  0
    1.8960  -12.5017   24.1454 C   0  0  0  0  0  0  0  0  0  0  0  0
    2.2112  -12.2020   22.8356 N   0  0  0  0  0  0  0  0  0  0  0  0
    6.1648  -10.9907   19.3490 C   0  0  0  0  0  0  0  0  0  0  0  0
   11.1327   -7.2466   21.4800 C   0  0  0  0  0  0  0  0  0  0  0  0
   11.9995   -8.1618   22.0686 C   0  0  0  0  0  0  0  0  0  0  0  0
   13.3554   -7.7930   22.2618 C   0  0  0  0  0  0  0  0  0  0  0  0
   13.8615   -6.5438   21.8305 C   0  0  0  0  0  0  0  0  0  0  0  0
   12.9668   -5.5820   21.3876 C   0  0  0  0  0  0  0  0  0  0  0  0
   11.6254   -5.9372   21.2986 C   0  0  0  0  0  0  0  0  0  0  0  0
   13.4281   -4.2719   20.7952 C   0  0  0  0  0  0  0  0  0  0  0  0
   14.9206   -4.0097   20.9939 C   0  0  0  0  0  0  0  0  0  0  0  0
   15.7116   -5.2246   20.7974 N   0  0  0  0  0  0  0  0  0  0  0  0
   15.3409   -6.2418   21.7952 C   0  0  0  0  0  0  0  0  0  0  0  0
    9.9102   -9.3211   21.2390 H   0  0  0  0  0  0  0  0  0  0  0  0
    8.4136  -10.1087   18.4849 H   0  0  0  0  0  0  0  0  0  0  0  0
    7.6100  -12.2842   21.2058 H   0  0  0  0  0  0  0  0  0  0  0  0
    6.7695  -12.6052   20.1737 H   0  0  0  0  0  0  0  0  0  0  0  0
    5.8062  -11.0058   22.1228 H   0  0  0  0  0  0  0  0  0  0  0  0
    3.5855  -13.6677   24.9653 H   0  0  0  0  0  0  0  0  0  0  0  0
    1.0242  -12.2760   24.7303 H   0  0  0  0  0  0  0  0  0  0  0  0
    1.4466  -11.7127   22.4020 H   0  0  0  0  0  0  0  0  0  0  0  0
    6.0065  -11.9077   18.7543 H   0  0  0  0  0  0  0  0  0  0  0  0
    5.7494  -10.3978   18.5653 H   0  0  0  0  0  0  0  0  0  0  0  0
   11.7225   -9.1929   22.2517 H   0  0  0  0  0  0  0  0  0  0  0  0
   14.0510   -8.5426   22.6379 H   0  0  0  0  0  0  0  0  0  0  0  0
   10.9438   -5.2170   20.8987 H   0  0  0  0  0  0  0  0  0  0  0  0
   12.8567   -3.4508   21.2408 H   0  0  0  0  0  0  0  0  0  0  0  0
   13.2163   -4.2950   19.7185 H   0  0  0  0  0  0  0  0  0  0  0  0
   15.2496   -3.2376   20.2895 H   0  0  0  0  0  0  0  0  0  0  0  0
   15.1014   -3.6129   22.0013 H   0  0  0  0  0  0  0  0  0  0  0  0
   16.7010   -5.0108   20.8953 H   0  0  0  0  0  0  0  0  0  0  0  0
   15.6612   -5.9233   22.7948 H   0  0  0  0  0  0  0  0  0  0  0  0
   15.8873   -7.1595   21.5496 H   0  0  0  0  0  0  0  0  0  0  0  0
  1  2  2  0
  2  3  1  0
  3  4  1  0
  4  5  1  0
  5  6  1  0
  6  7  1  0
  7  8  2  0
  8  9  1  0
  9 10  2  0
 10 11  1  0
  6 12  1  0
  2 13  1  0
 13 14  2  0
 14 15  1  0
 15 16  2  0
 16 17  1  0
 17 18  2  0
 17 19  1  0
 19 20  1  0
 20 21  1  0
 21 22  1  0
 12  4  1  0
 18 13  1  0
 11  7  1  0
 22 16  1  0
  3 23  1  0
  4 24  1  0
  5 25  1  0
  5 26  1  0
  6 27  1  0
  9 28  1  0
 10 29  1  0
 11 30  1  0
 12 31  1  0
 12 32  1  0
 14 33  1  0
 15 34  1  0
 18 35  1  0
 19 36  1  0
 19 37  1  0
 20 38  1  0
 20 39  1  0
 21 40  1  0
 22 41  1  0
 22 42  1  0
M  END
>  <Energy>  (612) 
944.28707906790089

>  <compound_id>  (612) 
46578

>  <target_id>  (612) 
1

>  <reference_id>  (612) 
116

>  <inspiration_ids>  (612) 
[116, 146]

>  <energy_score>  (612) 
876.8970417214218

>  <distance_score>  (612) 
7.166147129817557

>  <path>  (612) 
/opt/xchem-fragalysis-2/maxwin/BulkDock/SCRATCH/511023/C46578-P116/C46578-P116.minimised.mol

>  <scratch_subdir>  (612) 
/opt/xchem-fragalysis-2/maxwin/BulkDock/SCRATCH/511023/C46578-P116

>  <fragmenstein_runtime>  (612) 
14.215754747390747

>  <fragmenstein_outcome>  (612) 
too moved

>  <fragmenstein_mode>  (612) 
expansion

>  <fragmenstein_error>  (612) 


$$$$
C46578-P146
     RDKit          3D

 42 45  0  0  0  0  0  0  0  0999 V2000
   11.8422   -4.5828   22.1740 O   0  0  0  0  0  0  0  0  0  0  0  0
   11.4179   -4.8311   21.0419 C   0  0  0  0  0  0  0  0  0  0  0  0
    9.6583   -5.1366   20.5554 N   0  0  0  0  0  0  0  0  0  0  0  0
    7.8809   -5.0249   21.6745 C   0  0  0  0  0  0  0  0  0  0  0  0
    7.3424   -5.2013   23.5171 C   0  0  0  0  0  0  0  0  0  0  0  0
    6.7194   -6.4981   23.6808 C   0  0  0  0  0  0  0  0  0  0  0  0
    7.2172   -7.4706   24.8608 C   0  0  0  0  0  0  0  0  0  0  0  0
    8.2157   -8.3294   24.8506 N   0  0  0  0  0  0  0  0  0  0  0  0
    8.2406   -8.8737   26.1113 C   0  0  0  0  0  0  0  0  0  0  0  0
    7.3034   -8.2812   26.9221 C   0  0  0  0  0  0  0  0  0  0  0  0
    6.6191   -7.4371   26.0993 N   0  0  0  0  0  0  0  0  0  0  0  0
    6.9620   -6.6617   22.2370 C   0  0  0  0  0  0  0  0  0  0  0  0
   12.7062   -4.7158   19.8981 C   0  0  0  0  0  0  0  0  0  0  0  0
   12.7038   -4.5735   18.4709 C   0  0  0  0  0  0  0  0  0  0  0  0
   13.7759   -4.1586   17.6769 C   0  0  0  0  0  0  0  0  0  0  0  0
   14.9427   -3.7502   18.2740 C   0  0  0  0  0  0  0  0  0  0  0  0
   15.0209   -3.8118   19.6732 C   0  0  0  0  0  0  0  0  0  0  0  0
   13.9429   -4.3272   20.4579 C   0  0  0  0  0  0  0  0  0  0  0  0
   16.2710   -3.2882   20.3381 C   0  0  0  0  0  0  0  0  0  0  0  0
   17.0655   -2.3509   19.4126 C   0  0  0  0  0  0  0  0  0  0  0  0
   17.2902   -2.9521   18.0932 N   0  0  0  0  0  0  0  0  0  0  0  0
   16.0115   -3.1276   17.4115 C   0  0  0  0  0  0  0  0  0  0  0  0
    9.6145   -5.3941   19.5856 H   0  0  0  0  0  0  0  0  0  0  0  0
    7.6424   -3.9903   21.3618 H   0  0  0  0  0  0  0  0  0  0  0  0
    7.9748   -5.5083   24.3522 H   0  0  0  0  0  0  0  0  0  0  0  0
    6.6965   -4.3783   23.8603 H   0  0  0  0  0  0  0  0  0  0  0  0
    5.6712   -6.3545   23.9860 H   0  0  0  0  0  0  0  0  0  0  0  0
    8.9666   -9.6308   26.3777 H   0  0  0  0  0  0  0  0  0  0  0  0
    7.0737   -8.3965   27.9703 H   0  0  0  0  0  0  0  0  0  0  0  0
    5.8657   -6.8150   26.3483 H   0  0  0  0  0  0  0  0  0  0  0  0
    5.9681   -7.0894   22.3451 H   0  0  0  0  0  0  0  0  0  0  0  0
    6.9051   -7.3073   21.3686 H   0  0  0  0  0  0  0  0  0  0  0  0
   11.8190   -4.6656   17.8520 H   0  0  0  0  0  0  0  0  0  0  0  0
   13.6436   -4.0722   16.6014 H   0  0  0  0  0  0  0  0  0  0  0  0
   14.0549   -4.3148   21.5433 H   0  0  0  0  0  0  0  0  0  0  0  0
   16.8937   -4.1448   20.6239 H   0  0  0  0  0  0  0  0  0  0  0  0
   16.0075   -2.7415   21.2510 H   0  0  0  0  0  0  0  0  0  0  0  0
   16.5487   -1.3886   19.3022 H   0  0  0  0  0  0  0  0  0  0  0  0
   18.0353   -2.1318   19.8731 H   0  0  0  0  0  0  0  0  0  0  0  0
   17.7085   -3.8739   18.2255 H   0  0  0  0  0  0  0  0  0  0  0  0
   16.1789   -3.7507   16.5250 H   0  0  0  0  0  0  0  0  0  0  0  0
   15.6562   -2.1510   17.0594 H   0  0  0  0  0  0  0  0  0  0  0  0
  1  2  2  0
  2  3  1  0
  3  4  1  0
  4  5  1  0
  5  6  1  0
  6  7  1  0
  7  8  2  0
  8  9  1  0
  9 10  2  0
 10 11  1  0
  6 12  1  0
  2 13  1  0
 13 14  2  0
 14 15  1  0
 15 16  2  0
 16 17  1  0
 17 18  2  0
 17 19  1  0
 19 20  1  0
 20 21  1  0
 21 22  1  0
 12  4  1  0
 18 13  1  0
 11  7  1  0
 22 16  1  0
  3 23  1  0
  4 24  1  0
  5 25  1  0
  5 26  1  0
  6 27  1  0
  9 28  1  0
 10 29  1  0
 11 30  1  0
 12 31  1  0
 12 32  1  0
 14 33  1  0
 15 34  1  0
 18 35  1  0
 19 36  1  0
 19 37  1  0
 20 38  1  0
 20 39  1  0
 21 40  1  0
 22 41  1  0
 22 42  1  0
M  END
>  <Energy>  (613) 
436.4006492565693

>  <compound_id>  (613) 
46578

>  <target_id>  (613) 
1

>  <reference_id>  (613) 
146

>  <inspiration_ids>  (613) 
[116, 146]

>  <energy_score>  (613) 
369.01061191008955

>  <distance_score>  (613) 
7.3602832708336665

>  <path>  (613) 
/opt/xchem-fragalysis-2/maxwin/BulkDock/SCRATCH/511023/C46578-P146/C46578-P146.minimised.mol

>  <scratch_subdir>  (613) 
/opt/xchem-fragalysis-2/maxwin/BulkDock/SCRATCH/511023/C46578-P146

>  <fragmenstein_runtime>  (613) 
16.435938119888306

>  <fragmenstein_outcome>  (613) 
too moved

>  <fragmenstein_mode>  (613) 
expansion

>  <fragmenstein_error>  (613) 


$$$$
C46581-P116
     RDKit          3D

 43 45  0  0  0  0  0  0  0  0999 V2000
    7.2718   -6.7864   15.3081 O   0  0  0  0  0  0  0  0  0  0  0  0
    6.8770   -5.6786   16.1111 S   0  0  0  0  0  0  0  0  0  0  0  0
    5.4690   -5.2884   15.8812 O   0  0  0  0  0  0  0  0  0  0  0  0
    6.9184   -5.6730   18.3678 N   0  0  0  0  0  0  0  0  0  0  0  0
    6.7443   -7.0469   19.6237 C   0  0  0  0  0  0  0  0  0  0  0  0
    5.4444   -7.2326   18.4319 C   0  0  0  0  0  0  0  0  0  0  0  0
    4.8184   -6.0023   18.1826 O   0  0  0  0  0  0  0  0  0  0  0  0
    6.3958   -6.8560   21.6662 C   0  0  0  0  0  0  0  0  0  0  0  0
    6.6842   -5.8142   22.6016 N   0  0  0  0  0  0  0  0  0  0  0  0
    6.2158   -5.8464   23.9598 C   0  0  0  0  0  0  0  0  0  0  0  0
    5.6288   -7.0172   24.1208 C   0  0  0  0  0  0  0  0  0  0  0  0
    5.3499   -7.3082   22.7983 N   0  0  0  0  0  0  0  0  0  0  0  0
    8.2707   -3.8061   15.3985 C   0  0  0  0  0  0  0  0  0  0  0  0
    9.7740   -3.6818   15.0674 C   0  0  0  0  0  0  0  0  0  0  0  0
   10.4667   -2.4633   14.9390 C   0  0  0  0  0  0  0  0  0  0  0  0
    9.7816   -1.2569   14.9561 C   0  0  0  0  0  0  0  0  0  0  0  0
    8.3637   -1.3015   14.9335 C   0  0  0  0  0  0  0  0  0  0  0  0
    7.6492   -2.5529   15.0165 C   0  0  0  0  0  0  0  0  0  0  0  0
    7.5169   -0.0622   14.7033 C   0  0  0  0  0  0  0  0  0  0  0  0
    8.0991    1.2409   15.2436 C   0  0  0  0  0  0  0  0  0  0  0  0
    9.1721    1.8540   14.3449 C   0  0  0  0  0  0  0  0  0  0  0  0
   10.1373    0.9128   13.7897 N   0  0  0  0  0  0  0  0  0  0  0  0
   10.6231   -0.0013   14.8187 C   0  0  0  0  0  0  0  0  0  0  0  0
    6.0325   -5.1743   18.5646 H   0  0  0  0  0  0  0  0  0  0  0  0
    7.5229   -7.6811   19.4807 H   0  0  0  0  0  0  0  0  0  0  0  0
    4.9208   -8.1527   18.5152 H   0  0  0  0  0  0  0  0  0  0  0  0
    5.8600   -7.2481   17.4678 H   0  0  0  0  0  0  0  0  0  0  0  0
    4.6987   -5.8781   17.2145 H   0  0  0  0  0  0  0  0  0  0  0  0
    6.4361   -5.0493   24.6570 H   0  0  0  0  0  0  0  0  0  0  0  0
    5.2058   -7.5365   24.9595 H   0  0  0  0  0  0  0  0  0  0  0  0
    4.7663   -8.0892   22.6111 H   0  0  0  0  0  0  0  0  0  0  0  0
   10.5084   -4.4859   14.9828 H   0  0  0  0  0  0  0  0  0  0  0  0
   11.5480   -2.4920   14.8135 H   0  0  0  0  0  0  0  0  0  0  0  0
    6.5836   -2.5261   14.7778 H   0  0  0  0  0  0  0  0  0  0  0  0
    6.5568   -0.2131   15.2145 H   0  0  0  0  0  0  0  0  0  0  0  0
    7.2931    0.0275   13.6333 H   0  0  0  0  0  0  0  0  0  0  0  0
    8.4854    1.0905   16.2599 H   0  0  0  0  0  0  0  0  0  0  0  0
    7.2882    1.9749   15.3352 H   0  0  0  0  0  0  0  0  0  0  0  0
    8.6946    2.3825   13.5165 H   0  0  0  0  0  0  0  0  0  0  0  0
    9.7068    2.6270   14.9109 H   0  0  0  0  0  0  0  0  0  0  0  0
    9.6925    0.3066   13.0887 H   0  0  0  0  0  0  0  0  0  0  0  0
   11.6464   -0.2733   14.5336 H   0  0  0  0  0  0  0  0  0  0  0  0
   10.7067    0.4987   15.7858 H   0  0  0  0  0  0  0  0  0  0  0  0
  1  2  2  0
  2  3  2  0
  2  4  1  0
  4  5  1  0
  5  6  1  0
  6  7  1  0
  5  8  1  0
  8  9  2  0
  9 10  1  0
 10 11  2  0
 11 12  1  0
  2 13  1  0
 13 14  2  0
 14 15  1  0
 15 16  2  0
 16 17  1  0
 17 18  2  0
 17 19  1  0
 19 20  1  0
 20 21  1  0
 21 22  1  0
 22 23  1  0
 12  8  1  0
 18 13  1  0
 23 16  1  0
  4 24  1  0
  5 25  1  0
  6 26  1  0
  6 27  1  0
  7 28  1  0
 10 29  1  0
 11 30  1  0
 12 31  1  0
 14 32  1  0
 15 33  1  0
 18 34  1  0
 19 35  1  0
 19 36  1  0
 20 37  1  0
 20 38  1  0
 21 39  1  0
 21 40  1  0
 22 41  1  0
 23 42  1  0
 23 43  1  0
M  END
>  <Energy>  (614) 
495.56760103226236

>  <compound_id>  (614) 
46581

>  <target_id>  (614) 
1

>  <reference_id>  (614) 
116

>  <inspiration_ids>  (614) 
[116, 146]

>  <energy_score>  (614) 
362.08646332341186

>  <distance_score>  (614) 
8.133656514337964

>  <path>  (614) 
/opt/xchem-fragalysis-2/maxwin/BulkDock/SCRATCH/511023/C46581-P116/C46581-P116.minimised.mol

>  <scratch_subdir>  (614) 
/opt/xchem-fragalysis-2/maxwin/BulkDock/SCRATCH/511023/C46581-P116

>  <fragmenstein_runtime>  (614) 
20.585049867630005

>  <fragmenstein_outcome>  (614) 
too moved

>  <fragmenstein_mode>  (614) 
expansion

>  <fragmenstein_error>  (614) 


$$$$
C46581-P146
     RDKit          3D

 43 45  0  0  0  0  0  0  0  0999 V2000
   13.6123   -5.4992   25.8071 O   0  0  0  0  0  0  0  0  0  0  0  0
   12.8343   -5.7823   24.6218 S   0  0  0  0  0  0  0  0  0  0  0  0
   12.9754   -7.0537   23.9337 O   0  0  0  0  0  0  0  0  0  0  0  0
   11.1920   -5.6796   25.1214 N   0  0  0  0  0  0  0  0  0  0  0  0
   10.6867   -6.7768   26.1033 C   0  0  0  0  0  0  0  0  0  0  0  0
   11.1213   -8.2146   25.7345 C   0  0  0  0  0  0  0  0  0  0  0  0
   10.7559   -8.5398   24.3824 O   0  0  0  0  0  0  0  0  0  0  0  0
    9.1381   -6.7513   26.2827 C   0  0  0  0  0  0  0  0  0  0  0  0
    8.4506   -6.0415   27.1658 N   0  0  0  0  0  0  0  0  0  0  0  0
    7.1322   -6.4255   27.0444 C   0  0  0  0  0  0  0  0  0  0  0  0
    6.9958   -7.3914   26.0839 C   0  0  0  0  0  0  0  0  0  0  0  0
    8.2660   -7.6042   25.6191 N   0  0  0  0  0  0  0  0  0  0  0  0
   13.2223   -4.5052   23.3764 C   0  0  0  0  0  0  0  0  0  0  0  0
   13.8678   -3.3378   23.7582 C   0  0  0  0  0  0  0  0  0  0  0  0
   14.4767   -2.5161   22.7844 C   0  0  0  0  0  0  0  0  0  0  0  0
   14.5117   -2.8483   21.4093 C   0  0  0  0  0  0  0  0  0  0  0  0
   13.8633   -4.0197   21.0071 C   0  0  0  0  0  0  0  0  0  0  0  0
   13.2209   -4.8159   22.0027 C   0  0  0  0  0  0  0  0  0  0  0  0
   13.9191   -4.5700   19.5950 C   0  0  0  0  0  0  0  0  0  0  0  0
   14.1622   -3.6436   18.4063 C   0  0  0  0  0  0  0  0  0  0  0  0
   15.5764   -3.0840   18.3198 C   0  0  0  0  0  0  0  0  0  0  0  0
   16.1566   -2.6159   19.5668 N   0  0  0  0  0  0  0  0  0  0  0  0
   15.2340   -1.9207   20.4534 C   0  0  0  0  0  0  0  0  0  0  0  0
   11.0279   -4.7735   25.5699 H   0  0  0  0  0  0  0  0  0  0  0  0
   11.1073   -6.5275   27.0868 H   0  0  0  0  0  0  0  0  0  0  0  0
   12.1985   -8.3629   25.8619 H   0  0  0  0  0  0  0  0  0  0  0  0
   10.6337   -8.9466   26.3888 H   0  0  0  0  0  0  0  0  0  0  0  0
   11.5406   -8.2676   23.8536 H   0  0  0  0  0  0  0  0  0  0  0  0
    6.3601   -5.9683   27.6481 H   0  0  0  0  0  0  0  0  0  0  0  0
    6.1478   -7.9229   25.6741 H   0  0  0  0  0  0  0  0  0  0  0  0
    8.5289   -8.2835   24.9171 H   0  0  0  0  0  0  0  0  0  0  0  0
   13.9550   -3.0656   24.8074 H   0  0  0  0  0  0  0  0  0  0  0  0
   14.9704   -1.6075   23.1289 H   0  0  0  0  0  0  0  0  0  0  0  0
   12.7354   -5.7245   21.6870 H   0  0  0  0  0  0  0  0  0  0  0  0
   12.9494   -5.0378   19.4119 H   0  0  0  0  0  0  0  0  0  0  0  0
   14.6770   -5.3633   19.5836 H   0  0  0  0  0  0  0  0  0  0  0  0
   13.4356   -2.8330   18.4028 H   0  0  0  0  0  0  0  0  0  0  0  0
   13.9711   -4.2094   17.4847 H   0  0  0  0  0  0  0  0  0  0  0  0
   16.2401   -3.8572   17.9155 H   0  0  0  0  0  0  0  0  0  0  0  0
   15.5792   -2.2661   17.5887 H   0  0  0  0  0  0  0  0  0  0  0  0
   16.9608   -2.0242   19.3655 H   0  0  0  0  0  0  0  0  0  0  0  0
   14.5247   -1.2891   19.9112 H   0  0  0  0  0  0  0  0  0  0  0  0
   15.8400   -1.2255   21.0484 H   0  0  0  0  0  0  0  0  0  0  0  0
  1  2  2  0
  2  3  2  0
  2  4  1  0
  4  5  1  0
  5  6  1  0
  6  7  1  0
  5  8  1  0
  8  9  2  0
  9 10  1  0
 10 11  2  0
 11 12  1  0
  2 13  1  0
 13 14  2  0
 14 15  1  0
 15 16  2  0
 16 17  1  0
 17 18  2  0
 17 19  1  0
 19 20  1  0
 20 21  1  0
 21 22  1  0
 22 23  1  0
 12  8  1  0
 18 13  1  0
 23 16  1  0
  4 24  1  0
  5 25  1  0
  6 26  1  0
  6 27  1  0
  7 28  1  0
 10 29  1  0
 11 30  1  0
 12 31  1  0
 14 32  1  0
 15 33  1  0
 18 34  1  0
 19 35  1  0
 19 36  1  0
 20 37  1  0
 20 38  1  0
 21 39  1  0
 21 40  1  0
 22 41  1  0
 23 42  1  0
 23 43  1  0
M  END
>  <Energy>  (615) 
-6.3851189592689312

>  <compound_id>  (615) 
46581

>  <target_id>  (615) 
1

>  <reference_id>  (615) 
146

>  <inspiration_ids>  (615) 
[116, 146]

>  <energy_score>  (615) 
-139.86625666811256

>  <distance_score>  (615) 
8.392665679899984

>  <path>  (615) 
/opt/xchem-fragalysis-2/maxwin/BulkDock/SCRATCH/511023/C46581-P146/C46581-P146.minimised.mol

>  <scratch_subdir>  (615) 
/opt/xchem-fragalysis-2/maxwin/BulkDock/SCRATCH/511023/C46581-P146

>  <fragmenstein_runtime>  (615) 
19.683685779571533

>  <fragmenstein_outcome>  (615) 
too moved

>  <fragmenstein_mode>  (615) 
expansion

>  <fragmenstein_error>  (615) 


$$$$
C46572-P116
     RDKit          3D

 42 45  0  0  0  0  0  0  0  0999 V2000
   13.3495   -8.8578   22.9948 O   0  0  0  0  0  0  0  0  0  0  0  0
   12.7555   -7.8353   23.1946 C   0  0  0  0  0  0  0  0  0  0  0  0
   11.5694   -7.5730   23.9741 N   0  0  0  0  0  0  0  0  0  0  0  0
   10.7233   -8.4219   24.6377 C   0  0  0  0  0  0  0  0  0  0  0  0
    9.5400   -8.0706   25.1106 N   0  0  0  0  0  0  0  0  0  0  0  0
    8.9689   -9.2191   25.6149 C   0  0  0  0  0  0  0  0  0  0  0  0
    7.5683   -9.2995   26.2791 C   0  0  0  0  0  0  0  0  0  0  0  0
    7.4258   -8.9159   27.7281 C   0  0  0  0  0  0  0  0  0  0  0  0
    6.8621   -8.0249   26.6594 C   0  0  0  0  0  0  0  0  0  0  0  0
    9.7988  -10.2930   25.4167 C   0  0  0  0  0  0  0  0  0  0  0  0
   10.9056   -9.7743   24.7858 N   0  0  0  0  0  0  0  0  0  0  0  0
   13.2882   -6.6015   22.3997 C   0  0  0  0  0  0  0  0  0  0  0  0
   12.6201   -5.3791   22.3036 C   0  0  0  0  0  0  0  0  0  0  0  0
   12.9096   -4.4696   21.2737 C   0  0  0  0  0  0  0  0  0  0  0  0
   13.8930   -4.7197   20.3128 C   0  0  0  0  0  0  0  0  0  0  0  0
   14.7441   -5.8075   20.5261 C   0  0  0  0  0  0  0  0  0  0  0  0
   14.4107   -6.7479   21.5515 C   0  0  0  0  0  0  0  0  0  0  0  0
   15.9966   -6.0546   19.7093 C   0  0  0  0  0  0  0  0  0  0  0  0
   16.4732   -5.0167   18.6768 C   0  0  0  0  0  0  0  0  0  0  0  0
   16.3619   -3.5696   19.1549 C   0  0  0  0  0  0  0  0  0  0  0  0
   15.0494   -2.9479   18.9564 N   0  0  0  0  0  0  0  0  0  0  0  0
   13.9348   -3.8880   19.0538 C   0  0  0  0  0  0  0  0  0  0  0  0
   11.3984   -6.5871   23.9876 H   0  0  0  0  0  0  0  0  0  0  0  0
    6.9508  -10.1131   25.9157 H   0  0  0  0  0  0  0  0  0  0  0  0
    8.3055   -8.5715   28.2593 H   0  0  0  0  0  0  0  0  0  0  0  0
    6.7330   -9.4874   28.3339 H   0  0  0  0  0  0  0  0  0  0  0  0
    7.3579   -7.0808   26.4618 H   0  0  0  0  0  0  0  0  0  0  0  0
    5.7879   -7.9878   26.5252 H   0  0  0  0  0  0  0  0  0  0  0  0
    9.7109  -11.3448   25.6490 H   0  0  0  0  0  0  0  0  0  0  0  0
   11.7229  -10.2800   24.4703 H   0  0  0  0  0  0  0  0  0  0  0  0
   11.8217   -5.0789   22.9663 H   0  0  0  0  0  0  0  0  0  0  0  0
   12.3025   -3.5724   21.2034 H   0  0  0  0  0  0  0  0  0  0  0  0
   15.0097   -7.6565   21.6287 H   0  0  0  0  0  0  0  0  0  0  0  0
   16.8137   -6.1634   20.4370 H   0  0  0  0  0  0  0  0  0  0  0  0
   15.9079   -7.0270   19.2121 H   0  0  0  0  0  0  0  0  0  0  0  0
   15.9572   -5.1463   17.7197 H   0  0  0  0  0  0  0  0  0  0  0  0
   17.5276   -5.2323   18.4589 H   0  0  0  0  0  0  0  0  0  0  0  0
   17.0952   -2.9615   18.6114 H   0  0  0  0  0  0  0  0  0  0  0  0
   16.6429   -3.4956   20.2124 H   0  0  0  0  0  0  0  0  0  0  0  0
   15.0232   -2.5484   18.0194 H   0  0  0  0  0  0  0  0  0  0  0  0
   13.8940   -4.5519   18.1817 H   0  0  0  0  0  0  0  0  0  0  0  0
   13.0144   -3.3036   18.9733 H   0  0  0  0  0  0  0  0  0  0  0  0
  1  2  2  0
  2  3  1  0
  3  4  1  0
  4  5  2  0
  5  6  1  0
  6  7  1  0
  7  8  1  0
  8  9  1  0
  6 10  2  0
 10 11  1  0
  2 12  1  0
 12 13  2  0
 13 14  1  0
 14 15  2  0
 15 16  1  0
 16 17  2  0
 16 18  1  0
 18 19  1  0
 19 20  1  0
 20 21  1  0
 21 22  1  0
 11  4  1  0
 17 12  1  0
  9  7  1  0
 22 15  1  0
  3 23  1  0
  7 24  1  0
  8 25  1  0
  8 26  1  0
  9 27  1  0
  9 28  1  0
 10 29  1  0
 11 30  1  0
 13 31  1  0
 14 32  1  0
 17 33  1  0
 18 34  1  0
 18 35  1  0
 19 36  1  0
 19 37  1  0
 20 38  1  0
 20 39  1  0
 21 40  1  0
 22 41  1  0
 22 42  1  0
M  END
>  <Energy>  (616) 
27.524182785140219

>  <compound_id>  (616) 
46572

>  <target_id>  (616) 
1

>  <reference_id>  (616) 
116

>  <inspiration_ids>  (616) 
[116, 146]

>  <energy_score>  (616) 
-58.63966173032179

>  <distance_score>  (616) 
8.690685597181545

>  <path>  (616) 
/opt/xchem-fragalysis-2/maxwin/BulkDock/SCRATCH/511023/C46572-P116/C46572-P116.minimised.mol

>  <scratch_subdir>  (616) 
/opt/xchem-fragalysis-2/maxwin/BulkDock/SCRATCH/511023/C46572-P116

>  <fragmenstein_runtime>  (616) 
12.16518259048462

>  <fragmenstein_outcome>  (616) 
too moved

>  <fragmenstein_mode>  (616) 
expansion

>  <fragmenstein_error>  (616) 


$$$$
C46572-P146
     RDKit          3D

 42 45  0  0  0  0  0  0  0  0999 V2000
    4.2170   -7.6772   25.8549 O   0  0  0  0  0  0  0  0  0  0  0  0
    4.4231   -6.9119   26.7546 C   0  0  0  0  0  0  0  0  0  0  0  0
    3.6435   -6.6264   27.9561 N   0  0  0  0  0  0  0  0  0  0  0  0
    2.4901   -7.2249   28.4524 C   0  0  0  0  0  0  0  0  0  0  0  0
    2.2931   -8.5141   28.1221 N   0  0  0  0  0  0  0  0  0  0  0  0
    1.8560   -9.2345   29.2666 C   0  0  0  0  0  0  0  0  0  0  0  0
    2.9965  -11.0072   29.8525 C   0  0  0  0  0  0  0  0  0  0  0  0
    3.3298  -12.3185   29.4240 C   0  0  0  0  0  0  0  0  0  0  0  0
    3.0254  -12.1178   30.8454 C   0  0  0  0  0  0  0  0  0  0  0  0
    1.0228   -8.2687   29.8980 C   0  0  0  0  0  0  0  0  0  0  0  0
    1.5461   -6.9716   29.4738 N   0  0  0  0  0  0  0  0  0  0  0  0
    5.8009   -6.2563   26.5805 C   0  0  0  0  0  0  0  0  0  0  0  0
    6.7715   -7.1541   26.0698 C   0  0  0  0  0  0  0  0  0  0  0  0
    8.1414   -6.8810   26.0682 C   0  0  0  0  0  0  0  0  0  0  0  0
    8.6313   -5.6577   26.5297 C   0  0  0  0  0  0  0  0  0  0  0  0
    7.6812   -4.6670   26.8872 C   0  0  0  0  0  0  0  0  0  0  0  0
    6.2708   -4.9887   26.9322 C   0  0  0  0  0  0  0  0  0  0  0  0
    8.0885   -3.2225   27.1388 C   0  0  0  0  0  0  0  0  0  0  0  0
    9.4728   -2.9782   27.7367 C   0  0  0  0  0  0  0  0  0  0  0  0
   10.6620   -3.1366   26.7954 C   0  0  0  0  0  0  0  0  0  0  0  0
   10.7336   -4.3541   26.0021 N   0  0  0  0  0  0  0  0  0  0  0  0
   10.1461   -5.5193   26.6466 C   0  0  0  0  0  0  0  0  0  0  0  0
    4.0755   -5.8604   28.4560 H   0  0  0  0  0  0  0  0  0  0  0  0
    3.3721  -10.6450   30.7565 H   0  0  0  0  0  0  0  0  0  0  0  0
    3.3612  -13.3871   29.6106 H   0  0  0  0  0  0  0  0  0  0  0  0
    4.1411  -12.3245   28.7559 H   0  0  0  0  0  0  0  0  0  0  0  0
    2.1172  -12.2414   31.3702 H   0  0  0  0  0  0  0  0  0  0  0  0
    3.8233  -12.2091   31.5845 H   0  0  0  0  0  0  0  0  0  0  0  0
    0.4121   -8.2748   30.7897 H   0  0  0  0  0  0  0  0  0  0  0  0
    1.3592   -6.0864   29.9249 H   0  0  0  0  0  0  0  0  0  0  0  0
    6.4654   -8.1385   25.7071 H   0  0  0  0  0  0  0  0  0  0  0  0
    8.8178   -7.6628   25.7311 H   0  0  0  0  0  0  0  0  0  0  0  0
    5.5641   -4.2239   27.2418 H   0  0  0  0  0  0  0  0  0  0  0  0
    7.9653   -2.6398   26.2207 H   0  0  0  0  0  0  0  0  0  0  0  0
    7.3676   -2.8069   27.8563 H   0  0  0  0  0  0  0  0  0  0  0  0
    9.6068   -3.6181   28.6186 H   0  0  0  0  0  0  0  0  0  0  0  0
    9.4980   -1.9481   28.1167 H   0  0  0  0  0  0  0  0  0  0  0  0
   11.5797   -3.0643   27.3917 H   0  0  0  0  0  0  0  0  0  0  0  0
   10.6907   -2.2825   26.1075 H   0  0  0  0  0  0  0  0  0  0  0  0
   10.1583   -4.2072   25.1688 H   0  0  0  0  0  0  0  0  0  0  0  0
   10.4383   -5.5938   27.7017 H   0  0  0  0  0  0  0  0  0  0  0  0
   10.6122   -6.3889   26.1663 H   0  0  0  0  0  0  0  0  0  0  0  0
  1  2  2  0
  2  3  1  0
  3  4  1  0
  4  5  2  0
  5  6  1  0
  6  7  1  0
  7  8  1  0
  8  9  1  0
  6 10  2  0
 10 11  1  0
  2 12  1  0
 12 13  2  0
 13 14  1  0
 14 15  2  0
 15 16  1  0
 16 17  2  0
 16 18  1  0
 18 19  1  0
 19 20  1  0
 20 21  1  0
 21 22  1  0
 11  4  1  0
 17 12  1  0
  9  7  1  0
 22 15  1  0
  3 23  1  0
  7 24  1  0
  8 25  1  0
  8 26  1  0
  9 27  1  0
  9 28  1  0
 10 29  1  0
 11 30  1  0
 13 31  1  0
 14 32  1  0
 17 33  1  0
 18 34  1  0
 18 35  1  0
 19 36  1  0
 19 37  1  0
 20 38  1  0
 20 39  1  0
 21 40  1  0
 22 41  1  0
 22 42  1  0
M  END
>  <Energy>  (617) 
281.47341205386181

>  <compound_id>  (617) 
46572

>  <target_id>  (617) 
1

>  <reference_id>  (617) 
146

>  <inspiration_ids>  (617) 
[116, 146]

>  <energy_score>  (617) 
195.30956753840815

>  <distance_score>  (617) 
11.176684797318584

>  <path>  (617) 
/opt/xchem-fragalysis-2/maxwin/BulkDock/SCRATCH/511023/C46572-P146/C46572-P146.minimised.mol

>  <scratch_subdir>  (617) 
/opt/xchem-fragalysis-2/maxwin/BulkDock/SCRATCH/511023/C46572-P146

>  <fragmenstein_runtime>  (617) 
16.415157794952393

>  <fragmenstein_outcome>  (617) 
too moved

>  <fragmenstein_mode>  (617) 
expansion

>  <fragmenstein_error>  (617) 


$$$$
C46573-P116
     RDKit          3D

 39 42  0  0  0  0  0  0  0  0999 V2000
    9.3533   -8.2214   19.7922 O   0  0  0  0  0  0  0  0  0  0  0  0
   10.3253   -8.8772   19.9013 C   0  0  0  0  0  0  0  0  0  0  0  0
   10.7703  -10.3467   18.9320 N   0  0  0  0  0  0  0  0  0  0  0  0
   10.0273  -11.0566   17.9451 C   0  0  0  0  0  0  0  0  0  0  0  0
    8.7127  -11.1115   17.8188 N   0  0  0  0  0  0  0  0  0  0  0  0
    8.4171  -12.4514   17.6666 C   0  0  0  0  0  0  0  0  0  0  0  0
    7.0496  -13.1523   17.9111 C   0  0  0  0  0  0  0  0  0  0  0  0
    7.0212  -14.3396   18.8508 C   0  0  0  0  0  0  0  0  0  0  0  0
    6.3451  -13.0612   19.2328 C   0  0  0  0  0  0  0  0  0  0  0  0
    9.5564  -13.1441   17.3552 C   0  0  0  0  0  0  0  0  0  0  0  0
   10.5568  -12.2100   17.4100 N   0  0  0  0  0  0  0  0  0  0  0  0
   11.3334   -8.3529   21.2936 C   0  0  0  0  0  0  0  0  0  0  0  0
   12.3611   -9.1396   21.8283 C   0  0  0  0  0  0  0  0  0  0  0  0
   13.5821   -8.5209   22.1907 C   0  0  0  0  0  0  0  0  0  0  0  0
   13.7926   -7.1385   21.9949 C   0  0  0  0  0  0  0  0  0  0  0  0
   12.7109   -6.3226   21.6713 C   0  0  0  0  0  0  0  0  0  0  0  0
   11.4727   -6.9363   21.4381 C   0  0  0  0  0  0  0  0  0  0  0  0
   12.8868   -4.8707   21.2539 C   0  0  0  0  0  0  0  0  0  0  0  0
   14.2215   -4.3171   21.4977 N   0  0  0  0  0  0  0  0  0  0  0  0
   15.2510   -5.2815   21.1099 C   0  0  0  0  0  0  0  0  0  0  0  0
   15.1724   -6.5236   22.0171 C   0  0  0  0  0  0  0  0  0  0  0  0
   11.6253  -10.7578   19.2976 H   0  0  0  0  0  0  0  0  0  0  0  0
    6.4332  -13.2271   17.0219 H   0  0  0  0  0  0  0  0  0  0  0  0
    7.9129  -14.6065   19.4057 H   0  0  0  0  0  0  0  0  0  0  0  0
    6.3961  -15.1817   18.5800 H   0  0  0  0  0  0  0  0  0  0  0  0
    6.7816  -12.4597   20.0171 H   0  0  0  0  0  0  0  0  0  0  0  0
    5.2627  -13.0543   19.2288 H   0  0  0  0  0  0  0  0  0  0  0  0
    9.7443  -14.1884   17.1506 H   0  0  0  0  0  0  0  0  0  0  0  0
   11.5383  -12.4243   17.3420 H   0  0  0  0  0  0  0  0  0  0  0  0
   12.3058  -10.2231   21.8100 H   0  0  0  0  0  0  0  0  0  0  0  0
   14.4190   -9.1489   22.4945 H   0  0  0  0  0  0  0  0  0  0  0  0
   10.7153   -6.2662   21.0372 H   0  0  0  0  0  0  0  0  0  0  0  0
   12.6912   -4.8092   20.1770 H   0  0  0  0  0  0  0  0  0  0  0  0
   12.1501   -4.2522   21.7776 H   0  0  0  0  0  0  0  0  0  0  0  0
   14.3231   -3.4650   20.9508 H   0  0  0  0  0  0  0  0  0  0  0  0
   15.1445   -5.5583   20.0532 H   0  0  0  0  0  0  0  0  0  0  0  0
   16.2375   -4.8195   21.2260 H   0  0  0  0  0  0  0  0  0  0  0  0
   15.4202   -6.2566   23.0517 H   0  0  0  0  0  0  0  0  0  0  0  0
   15.9116   -7.2562   21.6724 H   0  0  0  0  0  0  0  0  0  0  0  0
  1  2  2  0
  2  3  1  0
  3  4  1  0
  4  5  2  0
  5  6  1  0
  6  7  1  0
  7  8  1  0
  8  9  1  0
  6 10  2  0
 10 11  1  0
  2 12  1  0
 12 13  2  0
 13 14  1  0
 14 15  2  0
 15 16  1  0
 16 17  2  0
 16 18  1  0
 18 19  1  0
 19 20  1  0
 20 21  1  0
 11  4  1  0
 17 12  1  0
  9  7  1  0
 21 15  1  0
  3 22  1  0
  7 23  1  0
  8 24  1  0
  8 25  1  0
  9 26  1  0
  9 27  1  0
 10 28  1  0
 11 29  1  0
 13 30  1  0
 14 31  1  0
 17 32  1  0
 18 33  1  0
 18 34  1  0
 19 35  1  0
 20 36  1  0
 20 37  1  0
 21 38  1  0
 21 39  1  0
M  END
>  <Energy>  (618) 
145.15507757843159

>  <compound_id>  (618) 
46573

>  <target_id>  (618) 
1

>  <reference_id>  (618) 
116

>  <inspiration_ids>  (618) 
[116, 146]

>  <energy_score>  (618) 
108.99540589036994

>  <distance_score>  (618) 
11.004990647755626

>  <path>  (618) 
/opt/xchem-fragalysis-2/maxwin/BulkDock/SCRATCH/511023/C46573-P116/C46573-P116.minimised.mol

>  <scratch_subdir>  (618) 
/opt/xchem-fragalysis-2/maxwin/BulkDock/SCRATCH/511023/C46573-P116

>  <fragmenstein_runtime>  (618) 
18.315751791000366

>  <fragmenstein_outcome>  (618) 
too moved

>  <fragmenstein_mode>  (618) 
expansion

>  <fragmenstein_error>  (618) 


$$$$
C46573-P146
     RDKit          3D

 39 42  0  0  0  0  0  0  0  0999 V2000
    6.7972   -6.9549   24.0912 O   0  0  0  0  0  0  0  0  0  0  0  0
    6.0783   -7.2120   23.1245 C   0  0  0  0  0  0  0  0  0  0  0  0
    4.5304   -8.3327   23.2131 N   0  0  0  0  0  0  0  0  0  0  0  0
    3.8375   -9.3540   24.5388 C   0  0  0  0  0  0  0  0  0  0  0  0
    2.5226  -10.2022   24.9943 N   0  0  0  0  0  0  0  0  0  0  0  0
    1.5936  -11.8430   24.7731 C   0  0  0  0  0  0  0  0  0  0  0  0
    0.0317  -12.8921   26.0424 C   0  0  0  0  0  0  0  0  0  0  0  0
   -1.6892  -12.2050   26.7527 C   0  0  0  0  0  0  0  0  0  0  0  0
   -1.6646  -13.3066   25.9387 C   0  0  0  0  0  0  0  0  0  0  0  0
    2.6644  -12.1003   23.9209 C   0  0  0  0  0  0  0  0  0  0  0  0
    3.8014  -10.8909   23.8146 N   0  0  0  0  0  0  0  0  0  0  0  0
    6.9178   -6.4369   21.3912 C   0  0  0  0  0  0  0  0  0  0  0  0
    7.3782   -7.5711   20.1006 C   0  0  0  0  0  0  0  0  0  0  0  0
    9.3120   -7.7059   19.9082 C   0  0  0  0  0  0  0  0  0  0  0  0
   10.2730   -6.1524   20.1599 C   0  0  0  0  0  0  0  0  0  0  0  0
    9.4993   -5.3201   19.5814 C   0  0  0  0  0  0  0  0  0  0  0  0
    7.8036   -4.9740   20.4598 C   0  0  0  0  0  0  0  0  0  0  0  0
   10.7960   -4.8808   17.9336 C   0  0  0  0  0  0  0  0  0  0  0  0
   12.4430   -4.5709   18.2829 N   0  0  0  0  0  0  0  0  0  0  0  0
   12.7906   -4.9019   19.6710 C   0  0  0  0  0  0  0  0  0  0  0  0
   11.7429   -5.6350   20.5927 C   0  0  0  0  0  0  0  0  0  0  0  0
    4.0962   -8.3275   22.3906 H   0  0  0  0  0  0  0  0  0  0  0  0
    0.5383  -13.6159   26.7188 H   0  0  0  0  0  0  0  0  0  0  0  0
   -1.9339  -11.2161   26.5020 H   0  0  0  0  0  0  0  0  0  0  0  0
   -2.2375  -12.4257   27.6827 H   0  0  0  0  0  0  0  0  0  0  0  0
   -1.9493  -14.1858   26.5215 H   0  0  0  0  0  0  0  0  0  0  0  0
   -2.5841  -12.8802   25.5455 H   0  0  0  0  0  0  0  0  0  0  0  0
    3.0240  -12.9589   23.3837 H   0  0  0  0  0  0  0  0  0  0  0  0
    4.6387  -11.0724   23.3040 H   0  0  0  0  0  0  0  0  0  0  0  0
    6.9916   -7.1008   19.1567 H   0  0  0  0  0  0  0  0  0  0  0  0
    9.8720   -8.6033   20.2109 H   0  0  0  0  0  0  0  0  0  0  0  0
    7.8536   -4.0734   21.0764 H   0  0  0  0  0  0  0  0  0  0  0  0
   11.0495   -5.5722   17.0795 H   0  0  0  0  0  0  0  0  0  0  0  0
   10.7535   -4.0347   17.2129 H   0  0  0  0  0  0  0  0  0  0  0  0
   12.9683   -5.1619   17.6392 H   0  0  0  0  0  0  0  0  0  0  0  0
   13.7647   -5.3992   19.7092 H   0  0  0  0  0  0  0  0  0  0  0  0
   13.0359   -3.9491   20.1588 H   0  0  0  0  0  0  0  0  0  0  0  0
   11.5733   -4.8041   21.2897 H   0  0  0  0  0  0  0  0  0  0  0  0
   12.1882   -6.2920   21.3033 H   0  0  0  0  0  0  0  0  0  0  0  0
  1  2  2  0
  2  3  1  0
  3  4  1  0
  4  5  2  0
  5  6  1  0
  6  7  1  0
  7  8  1  0
  8  9  1  0
  6 10  2  0
 10 11  1  0
  2 12  1  0
 12 13  2  0
 13 14  1  0
 14 15  2  0
 15 16  1  0
 16 17  2  0
 16 18  1  0
 18 19  1  0
 19 20  1  0
 20 21  1  0
 11  4  1  0
 17 12  1  0
  9  7  1  0
 21 15  1  0
  3 22  1  0
  7 23  1  0
  8 24  1  0
  8 25  1  0
  9 26  1  0
  9 27  1  0
 10 28  1  0
 11 29  1  0
 13 30  1  0
 14 31  1  0
 17 32  1  0
 18 33  1  0
 18 34  1  0
 19 35  1  0
 20 36  1  0
 20 37  1  0
 21 38  1  0
 21 39  1  0
M  END
>  <Energy>  (619) 
1554.2580749383119

>  <compound_id>  (619) 
46573

>  <target_id>  (619) 
1

>  <reference_id>  (619) 
146

>  <inspiration_ids>  (619) 
[116, 146]

>  <energy_score>  (619) 
1518.0984032502574

>  <distance_score>  (619) 
6.9507246978641435

>  <path>  (619) 
/opt/xchem-fragalysis-2/maxwin/BulkDock/SCRATCH/511023/C46573-P146/C46573-P146.minimised.mol

>  <scratch_subdir>  (619) 
/opt/xchem-fragalysis-2/maxwin/BulkDock/SCRATCH/511023/C46573-P146

>  <fragmenstein_runtime>  (619) 
13.67263388633728

>  <fragmenstein_outcome>  (619) 
too moved

>  <fragmenstein_mode>  (619) 
expansion

>  <fragmenstein_error>  (619) 


$$$$
C46344-P51
     RDKit          3D

 52 56  0  0  0  0  0  0  0  0999 V2000
  -13.5083    0.7361    7.2010 O   0  0  0  0  0  0  0  0  0  0  0  0
  -13.3248   -0.3169    7.7491 C   0  0  0  0  0  0  0  0  0  0  0  0
  -11.9707   -0.5831    8.4410 C   0  0  0  0  0  0  0  0  0  0  0  0
  -10.8890   -0.9512    7.5687 N   0  0  0  0  0  0  0  0  0  0  0  0
  -10.8604   -2.1135    6.8635 C   0  0  0  0  0  0  0  0  0  0  0  0
  -11.7609   -2.9300    6.7885 O   0  0  0  0  0  0  0  0  0  0  0  0
   -9.6130   -2.2665    6.2984 N   0  0  0  0  0  0  0  0  0  0  0  0
   -8.7047   -1.2692    6.7735 C   0  0  0  0  0  0  0  0  0  0  0  0
   -7.4046   -1.8011    7.3834 C   0  0  0  0  0  0  0  0  0  0  0  0
   -6.3834   -0.6543    7.2682 C   0  0  0  0  0  0  0  0  0  0  0  0
   -6.8832    0.0774    6.0585 C   0  0  0  0  0  0  0  0  0  0  0  0
   -6.2474    1.0711    5.3371 C   0  0  0  0  0  0  0  0  0  0  0  0
   -6.9226    1.6546    4.2636 C   0  0  0  0  0  0  0  0  0  0  0  0
   -8.2218    1.2474    3.9302 C   0  0  0  0  0  0  0  0  0  0  0  0
   -8.8699    0.2631    4.6755 C   0  0  0  0  0  0  0  0  0  0  0  0
   -8.1922   -0.3091    5.7417 C   0  0  0  0  0  0  0  0  0  0  0  0
   -9.6005   -0.5517    7.7923 C   0  0  0  0  0  0  0  0  0  0  0  0
   -9.2207    0.2338    8.6521 O   0  0  0  0  0  0  0  0  0  0  0  0
  -14.2192   -1.4299    7.9815 N   0  0  0  0  0  0  0  0  0  0  0  0
  -15.5574   -1.5744    7.7284 C   0  0  0  0  0  0  0  0  0  0  0  0
  -16.4317   -0.6576    7.1987 C   0  0  0  0  0  0  0  0  0  0  0  0
  -17.7031   -1.1719    7.4704 C   0  0  0  0  0  0  0  0  0  0  0  0
  -17.6775   -2.3472    8.0981 N   0  0  0  0  0  0  0  0  0  0  0  0
  -16.3564   -2.7019    8.1439 N   0  0  0  0  0  0  0  0  0  0  0  0
  -15.7517   -4.5481    8.4160 C   0  0  0  0  0  0  0  0  0  0  0  0
  -15.0057   -6.4162    8.0002 C   0  0  0  0  0  0  0  0  0  0  0  0
  -16.2459   -7.4757    8.3408 C   0  0  0  0  0  0  0  0  0  0  0  0
  -17.9136   -6.5581    8.5745 C   0  0  0  0  0  0  0  0  0  0  0  0
  -17.7560   -4.7654    8.0291 C   0  0  0  0  0  0  0  0  0  0  0  0
  -11.7092    0.3467    8.9629 H   0  0  0  0  0  0  0  0  0  0  0  0
  -12.0735   -1.3267    9.2313 H   0  0  0  0  0  0  0  0  0  0  0  0
   -9.3867   -3.0913    5.7582 H   0  0  0  0  0  0  0  0  0  0  0  0
   -7.5249   -2.1249    8.4193 H   0  0  0  0  0  0  0  0  0  0  0  0
   -7.0413   -2.6656    6.8101 H   0  0  0  0  0  0  0  0  0  0  0  0
   -5.3684   -1.0389    7.1360 H   0  0  0  0  0  0  0  0  0  0  0  0
   -6.4205   -0.0011    8.1462 H   0  0  0  0  0  0  0  0  0  0  0  0
   -5.2460    1.3928    5.5856 H   0  0  0  0  0  0  0  0  0  0  0  0
   -6.4398    2.4314    3.6760 H   0  0  0  0  0  0  0  0  0  0  0  0
   -8.7346    1.7132    3.0921 H   0  0  0  0  0  0  0  0  0  0  0  0
   -9.8899   -0.0254    4.4364 H   0  0  0  0  0  0  0  0  0  0  0  0
  -13.7456   -2.1225    8.5504 H   0  0  0  0  0  0  0  0  0  0  0  0
  -16.1790    0.3008    6.7684 H   0  0  0  0  0  0  0  0  0  0  0  0
  -18.6612   -0.7167    7.2588 H   0  0  0  0  0  0  0  0  0  0  0  0
  -14.8269   -3.9868    7.9777 H   0  0  0  0  0  0  0  0  0  0  0  0
  -14.7330   -6.9816    7.0776 H   0  0  0  0  0  0  0  0  0  0  0  0
  -14.0005   -6.7211    8.3602 H   0  0  0  0  0  0  0  0  0  0  0  0
  -15.9854   -8.2312    7.5749 H   0  0  0  0  0  0  0  0  0  0  0  0
  -15.9055   -8.2854    8.9778 H   0  0  0  0  0  0  0  0  0  0  0  0
  -18.2470   -6.5932    9.6141 H   0  0  0  0  0  0  0  0  0  0  0  0
  -18.7436   -6.9736    7.9799 H   0  0  0  0  0  0  0  0  0  0  0  0
  -18.1090   -4.5136    7.0161 H   0  0  0  0  0  0  0  0  0  0  0  0
  -18.4594   -4.2731    8.7143 H   0  0  0  0  0  0  0  0  0  0  0  0
  1  2  2  0
  2  3  1  0
  3  4  1  0
  4  5  1  0
  5  6  2  0
  5  7  1  0
  7  8  1  0
  8  9  1  0
  9 10  1  0
 10 11  1  0
 11 12  2  0
 12 13  1  0
 13 14  2  0
 14 15  1  0
 15 16  2  0
  8 17  1  0
 17 18  2  0
  2 19  1  0
 19 20  1  0
 20 21  2  0
 21 22  1  0
 22 23  2  0
 23 24  1  0
 24 25  1  0
 25 26  1  0
 26 27  1  0
 27 28  1  0
 28 29  1  0
 17  4  1  0
 24 20  1  0
 29 25  1  0
 16  8  1  0
 16 11  1  0
  3 30  1  0
  3 31  1  0
  7 32  1  0
  9 33  1  0
  9 34  1  0
 10 35  1  0
 10 36  1  0
 12 37  1  0
 13 38  1  0
 14 39  1  0
 15 40  1  0
 19 41  1  0
 21 42  1  0
 22 43  1  0
 25 44  1  0
 26 45  1  0
 26 46  1  0
 27 47  1  0
 27 48  1  0
 28 49  1  0
 28 50  1  0
 29 51  1  0
 29 52  1  0
M  END
>  <Energy>  (620) 
425.71986529799835

>  <compound_id>  (620) 
46344

>  <target_id>  (620) 
1

>  <reference_id>  (620) 
51

>  <inspiration_ids>  (620) 
[51, 30]

>  <energy_score>  (620) 
364.9987447768112

>  <distance_score>  (620) 
1.9116466130276366

>  <path>  (620) 
/opt/xchem-fragalysis-2/maxwin/BulkDock/SCRATCH/511023/C46344-P51/C46344-P51.minimised.mol

>  <scratch_subdir>  (620) 
/opt/xchem-fragalysis-2/maxwin/BulkDock/SCRATCH/511023/C46344-P51

>  <fragmenstein_runtime>  (620) 
11.089325428009033

>  <fragmenstein_outcome>  (620) 
too moved

>  <fragmenstein_mode>  (620) 
expansion

>  <fragmenstein_error>  (620) 


$$$$
C46344-P30
     RDKit          3D

 52 56  0  0  0  0  0  0  0  0999 V2000
  -15.2663    0.4712    6.9446 O   0  0  0  0  0  0  0  0  0  0  0  0
  -14.5974   -0.4493    7.3324 C   0  0  0  0  0  0  0  0  0  0  0  0
  -13.1046   -0.1622    7.6847 C   0  0  0  0  0  0  0  0  0  0  0  0
  -12.0350   -1.0346    7.2235 N   0  0  0  0  0  0  0  0  0  0  0  0
  -11.8252   -1.2287    5.8907 C   0  0  0  0  0  0  0  0  0  0  0  0
  -12.5555   -0.8845    4.9782 O   0  0  0  0  0  0  0  0  0  0  0  0
  -10.5689   -1.7477    5.6906 N   0  0  0  0  0  0  0  0  0  0  0  0
   -9.7339   -1.4728    6.8170 C   0  0  0  0  0  0  0  0  0  0  0  0
   -8.8368   -2.6451    7.2191 C   0  0  0  0  0  0  0  0  0  0  0  0
   -7.5272   -2.4890    6.4250 C   0  0  0  0  0  0  0  0  0  0  0  0
   -7.4638   -1.0073    6.2179 C   0  0  0  0  0  0  0  0  0  0  0  0
   -6.3908   -0.2574    5.7640 C   0  0  0  0  0  0  0  0  0  0  0  0
   -6.5808    1.1093    5.5479 C   0  0  0  0  0  0  0  0  0  0  0  0
   -7.8236    1.7069    5.7990 C   0  0  0  0  0  0  0  0  0  0  0  0
   -8.9009    0.9427    6.2507 C   0  0  0  0  0  0  0  0  0  0  0  0
   -8.7127   -0.4177    6.4546 C   0  0  0  0  0  0  0  0  0  0  0  0
  -10.7950   -1.0240    7.8399 C   0  0  0  0  0  0  0  0  0  0  0  0
  -10.5620   -0.5916    8.9635 O   0  0  0  0  0  0  0  0  0  0  0  0
  -14.9565   -1.8133    7.6334 N   0  0  0  0  0  0  0  0  0  0  0  0
  -16.1995   -2.4496    7.6542 C   0  0  0  0  0  0  0  0  0  0  0  0
  -17.4007   -1.8740    7.3175 C   0  0  0  0  0  0  0  0  0  0  0  0
  -18.3591   -2.8652    7.4595 C   0  0  0  0  0  0  0  0  0  0  0  0
  -17.8735   -4.0249    7.8884 N   0  0  0  0  0  0  0  0  0  0  0  0
  -16.4412   -3.8973    7.9228 N   0  0  0  0  0  0  0  0  0  0  0  0
  -15.3725   -5.5014    8.4746 C   0  0  0  0  0  0  0  0  0  0  0  0
  -14.5673   -7.0147    7.5888 C   0  0  0  0  0  0  0  0  0  0  0  0
  -15.1370   -8.4044    7.6246 C   0  0  0  0  0  0  0  0  0  0  0  0
  -16.3785   -7.8696    7.0898 C   0  0  0  0  0  0  0  0  0  0  0  0
  -16.7715   -6.6273    8.0438 C   0  0  0  0  0  0  0  0  0  0  0  0
  -12.8729    0.8411    7.3019 H   0  0  0  0  0  0  0  0  0  0  0  0
  -13.0530   -0.0994    8.7790 H   0  0  0  0  0  0  0  0  0  0  0  0
  -10.2400   -1.7828    4.7365 H   0  0  0  0  0  0  0  0  0  0  0  0
   -8.6109   -2.5843    8.2867 H   0  0  0  0  0  0  0  0  0  0  0  0
   -9.2958   -3.6238    7.0435 H   0  0  0  0  0  0  0  0  0  0  0  0
   -7.5954   -2.9982    5.4577 H   0  0  0  0  0  0  0  0  0  0  0  0
   -6.6671   -2.8686    6.9812 H   0  0  0  0  0  0  0  0  0  0  0  0
   -5.4323   -0.7234    5.5563 H   0  0  0  0  0  0  0  0  0  0  0  0
   -5.7678    1.7158    5.1582 H   0  0  0  0  0  0  0  0  0  0  0  0
   -7.9576    2.7714    5.6207 H   0  0  0  0  0  0  0  0  0  0  0  0
   -9.8679    1.4101    6.4124 H   0  0  0  0  0  0  0  0  0  0  0  0
  -14.1461   -2.2922    8.0188 H   0  0  0  0  0  0  0  0  0  0  0  0
  -17.5496   -0.8494    7.0052 H   0  0  0  0  0  0  0  0  0  0  0  0
  -19.4243   -2.7828    7.2876 H   0  0  0  0  0  0  0  0  0  0  0  0
  -14.6640   -4.7769    8.1648 H   0  0  0  0  0  0  0  0  0  0  0  0
  -14.5028   -6.9979    6.5237 H   0  0  0  0  0  0  0  0  0  0  0  0
  -13.6414   -7.2478    8.0877 H   0  0  0  0  0  0  0  0  0  0  0  0
  -15.0605   -8.8987    8.5852 H   0  0  0  0  0  0  0  0  0  0  0  0
  -14.6029   -9.0641    6.9268 H   0  0  0  0  0  0  0  0  0  0  0  0
  -17.3720   -8.0167    6.6318 H   0  0  0  0  0  0  0  0  0  0  0  0
  -16.0603   -8.0656    6.0213 H   0  0  0  0  0  0  0  0  0  0  0  0
  -17.7012   -6.1787    7.6680 H   0  0  0  0  0  0  0  0  0  0  0  0
  -17.1654   -6.9293    9.0000 H   0  0  0  0  0  0  0  0  0  0  0  0
  1  2  2  0
  2  3  1  0
  3  4  1  0
  4  5  1  0
  5  6  2  0
  5  7  1  0
  7  8  1  0
  8  9  1  0
  9 10  1  0
 10 11  1  0
 11 12  2  0
 12 13  1  0
 13 14  2  0
 14 15  1  0
 15 16  2  0
  8 17  1  0
 17 18  2  0
  2 19  1  0
 19 20  1  0
 20 21  2  0
 21 22  1  0
 22 23  2  0
 23 24  1  0
 24 25  1  0
 25 26  1  0
 26 27  1  0
 27 28  1  0
 28 29  1  0
 17  4  1  0
 24 20  1  0
 29 25  1  0
 16  8  1  0
 16 11  1  0
  3 30  1  0
  3 31  1  0
  7 32  1  0
  9 33  1  0
  9 34  1  0
 10 35  1  0
 10 36  1  0
 12 37  1  0
 13 38  1  0
 14 39  1  0
 15 40  1  0
 19 41  1  0
 21 42  1  0
 22 43  1  0
 25 44  1  0
 26 45  1  0
 26 46  1  0
 27 47  1  0
 27 48  1  0
 28 49  1  0
 28 50  1  0
 29 51  1  0
 29 52  1  0
M  END
>  <Energy>  (621) 
325.54209450994819

>  <compound_id>  (621) 
46344

>  <target_id>  (621) 
1

>  <reference_id>  (621) 
30

>  <inspiration_ids>  (621) 
[51, 30]

>  <energy_score>  (621) 
264.82097398876164

>  <distance_score>  (621) 
2.745114336102118

>  <path>  (621) 
/opt/xchem-fragalysis-2/maxwin/BulkDock/SCRATCH/511023/C46344-P30/C46344-P30.minimised.mol

>  <scratch_subdir>  (621) 
/opt/xchem-fragalysis-2/maxwin/BulkDock/SCRATCH/511023/C46344-P30

>  <fragmenstein_runtime>  (621) 
17.105478048324585

>  <fragmenstein_outcome>  (621) 
too moved

>  <fragmenstein_mode>  (621) 
expansion

>  <fragmenstein_error>  (621) 


$$$$
C46345-P51
     RDKit          3D

 56 60  0  0  0  0  0  0  0  0999 V2000
  -11.2682  -16.4724   13.6449 O   0  0  0  0  0  0  0  0  0  0  0  0
  -10.4883  -16.3334   12.7930 C   0  0  0  0  0  0  0  0  0  0  0  0
  -10.2026  -14.2330   12.4103 C   0  0  0  0  0  0  0  0  0  0  0  0
   -9.7747  -12.2879   11.9207 N   0  0  0  0  0  0  0  0  0  0  0  0
  -10.3167  -11.8469   10.6197 C   0  0  0  0  0  0  0  0  0  0  0  0
  -10.3665  -12.5880    9.6617 O   0  0  0  0  0  0  0  0  0  0  0  0
  -10.3180   -9.9859   10.4333 N   0  0  0  0  0  0  0  0  0  0  0  0
   -8.7751   -9.0797   11.0699 C   0  0  0  0  0  0  0  0  0  0  0  0
   -7.0135   -8.5026   10.2593 C   0  0  0  0  0  0  0  0  0  0  0  0
   -7.0987   -8.6241    8.3665 C   0  0  0  0  0  0  0  0  0  0  0  0
   -8.7594   -8.1298    8.1889 C   0  0  0  0  0  0  0  0  0  0  0  0
   -9.2409   -6.4603    7.3565 C   0  0  0  0  0  0  0  0  0  0  0  0
   -8.5804   -5.1792    7.3729 C   0  0  0  0  0  0  0  0  0  0  0  0
   -7.5400   -5.1345    8.3034 C   0  0  0  0  0  0  0  0  0  0  0  0
   -7.0909   -6.4793    9.3177 C   0  0  0  0  0  0  0  0  0  0  0  0
   -7.8842   -8.2135    9.4334 C   0  0  0  0  0  0  0  0  0  0  0  0
   -9.1444  -10.6499   12.4298 C   0  0  0  0  0  0  0  0  0  0  0  0
   -8.9118  -10.4756   13.6391 O   0  0  0  0  0  0  0  0  0  0  0  0
   -9.8025  -17.9444   11.8826 N   0  0  0  0  0  0  0  0  0  0  0  0
  -10.6597  -18.7665   10.1779 C   0  0  0  0  0  0  0  0  0  0  0  0
  -10.1759  -20.0441    8.9188 C   0  0  0  0  0  0  0  0  0  0  0  0
   -9.3094  -20.0026    7.8321 C   0  0  0  0  0  0  0  0  0  0  0  0
   -9.5334  -21.1387    7.0197 C   0  0  0  0  0  0  0  0  0  0  0  0
  -10.5902  -21.7946    7.5881 C   0  0  0  0  0  0  0  0  0  0  0  0
  -11.0432  -21.1064    8.6622 O   0  0  0  0  0  0  0  0  0  0  0  0
  -10.0381  -19.5757   12.1851 C   0  0  0  0  0  0  0  0  0  0  0  0
  -10.6815  -20.4079   13.0349 C   0  0  0  0  0  0  0  0  0  0  0  0
  -10.5732  -21.9478   13.0957 C   0  0  0  0  0  0  0  0  0  0  0  0
  -10.1390  -22.6834   11.8845 C   0  0  0  0  0  0  0  0  0  0  0  0
   -8.9631  -21.9943   11.3567 C   0  0  0  0  0  0  0  0  0  0  0  0
   -8.8912  -20.4613   11.4635 C   0  0  0  0  0  0  0  0  0  0  0  0
  -11.2715  -14.0429   12.3436 H   0  0  0  0  0  0  0  0  0  0  0  0
   -9.9192  -14.0176   13.4566 H   0  0  0  0  0  0  0  0  0  0  0  0
  -10.6142   -9.6242    9.5425 H   0  0  0  0  0  0  0  0  0  0  0  0
   -6.4215   -7.8141   10.9539 H   0  0  0  0  0  0  0  0  0  0  0  0
   -5.9138   -8.8922   10.3976 H   0  0  0  0  0  0  0  0  0  0  0  0
   -6.6265   -8.0953    7.6241 H   0  0  0  0  0  0  0  0  0  0  0  0
   -6.6851   -9.5796    7.9873 H   0  0  0  0  0  0  0  0  0  0  0  0
   -9.9285   -6.5720    6.4952 H   0  0  0  0  0  0  0  0  0  0  0  0
   -8.8188   -4.3870    6.6784 H   0  0  0  0  0  0  0  0  0  0  0  0
   -6.8737   -4.3114    8.1017 H   0  0  0  0  0  0  0  0  0  0  0  0
   -6.2234   -6.2028    9.9411 H   0  0  0  0  0  0  0  0  0  0  0  0
  -10.4048  -18.4236    9.1625 H   0  0  0  0  0  0  0  0  0  0  0  0
  -11.6524  -18.2921    9.8486 H   0  0  0  0  0  0  0  0  0  0  0  0
   -8.5878  -19.2288    7.6522 H   0  0  0  0  0  0  0  0  0  0  0  0
   -9.0115  -21.4249    6.1175 H   0  0  0  0  0  0  0  0  0  0  0  0
  -11.1408  -22.6914    7.3381 H   0  0  0  0  0  0  0  0  0  0  0  0
  -11.3406  -19.8827   13.6615 H   0  0  0  0  0  0  0  0  0  0  0  0
  -11.5243  -22.4498   13.1714 H   0  0  0  0  0  0  0  0  0  0  0  0
   -9.9617  -22.2409   13.9573 H   0  0  0  0  0  0  0  0  0  0  0  0
  -10.9231  -22.7362   11.1243 H   0  0  0  0  0  0  0  0  0  0  0  0
   -9.9080  -23.7295   12.1239 H   0  0  0  0  0  0  0  0  0  0  0  0
   -8.9639  -22.2802   10.3087 H   0  0  0  0  0  0  0  0  0  0  0  0
   -8.1105  -22.4411   11.8705 H   0  0  0  0  0  0  0  0  0  0  0  0
   -7.9296  -20.1950   11.9060 H   0  0  0  0  0  0  0  0  0  0  0  0
   -8.6891  -20.1334   10.4708 H   0  0  0  0  0  0  0  0  0  0  0  0
  1  2  2  0
  2  3  1  0
  3  4  1  0
  4  5  1  0
  5  6  2  0
  5  7  1  0
  7  8  1  0
  8  9  1  0
  9 10  1  0
 10 11  1  0
 11 12  2  0
 12 13  1  0
 13 14  2  0
 14 15  1  0
 15 16  2  0
  8 17  1  0
 17 18  2  0
  2 19  1  0
 19 20  1  0
 20 21  1  0
 21 22  2  0
 22 23  1  0
 23 24  2  0
 24 25  1  0
 19 26  1  0
 26 27  2  0
 27 28  1  0
 28 29  1  0
 29 30  1  0
 30 31  1  0
 17  4  1  0
 25 21  1  0
 31 26  1  0
 16  8  1  0
 16 11  1  0
  3 32  1  0
  3 33  1  0
  7 34  1  0
  9 35  1  0
  9 36  1  0
 10 37  1  0
 10 38  1  0
 12 39  1  0
 13 40  1  0
 14 41  1  0
 15 42  1  0
 20 43  1  0
 20 44  1  0
 22 45  1  0
 23 46  1  0
 24 47  1  0
 27 48  1  0
 28 49  1  0
 28 50  1  0
 29 51  1  0
 29 52  1  0
 30 53  1  0
 30 54  1  0
 31 55  1  0
 31 56  1  0
M  END
>  <Energy>  (622) 
1825.6156190002207

>  <compound_id>  (622) 
46345

>  <target_id>  (622) 
1

>  <reference_id>  (622) 
51

>  <inspiration_ids>  (622) 
[51, 30]

>  <energy_score>  (622) 
1752.338864700263

>  <distance_score>  (622) 
7.828325680756863

>  <path>  (622) 
/opt/xchem-fragalysis-2/maxwin/BulkDock/SCRATCH/511023/C46345-P51/C46345-P51.minimised.mol

>  <scratch_subdir>  (622) 
/opt/xchem-fragalysis-2/maxwin/BulkDock/SCRATCH/511023/C46345-P51

>  <fragmenstein_runtime>  (622) 
20.998300313949585

>  <fragmenstein_outcome>  (622) 
too moved

>  <fragmenstein_mode>  (622) 
expansion

>  <fragmenstein_error>  (622) 


$$$$
C46345-P30
     RDKit          3D

 56 60  0  0  0  0  0  0  0  0999 V2000
  -10.5337  -18.4952   15.3309 O   0  0  0  0  0  0  0  0  0  0  0  0
  -10.6376  -18.4678   14.1134 C   0  0  0  0  0  0  0  0  0  0  0  0
  -10.7267  -16.4703   13.4504 C   0  0  0  0  0  0  0  0  0  0  0  0
   -9.9793  -14.6335   13.4146 N   0  0  0  0  0  0  0  0  0  0  0  0
   -9.9550  -13.7337   12.3716 C   0  0  0  0  0  0  0  0  0  0  0  0
  -10.7725  -13.4663   11.5133 O   0  0  0  0  0  0  0  0  0  0  0  0
   -8.7366  -12.8583   12.2622 N   0  0  0  0  0  0  0  0  0  0  0  0
   -8.3080  -12.0704   13.4433 C   0  0  0  0  0  0  0  0  0  0  0  0
   -9.4890  -11.3043   13.7122 C   0  0  0  0  0  0  0  0  0  0  0  0
   -9.8020   -9.8789   13.3855 C   0  0  0  0  0  0  0  0  0  0  0  0
   -8.5921   -9.5002   12.7966 C   0  0  0  0  0  0  0  0  0  0  0  0
   -8.3850   -8.8241   11.2257 C   0  0  0  0  0  0  0  0  0  0  0  0
   -6.7783   -8.1539   10.6699 C   0  0  0  0  0  0  0  0  0  0  0  0
   -5.7450   -8.2675   11.8233 C   0  0  0  0  0  0  0  0  0  0  0  0
   -6.1931   -9.3444   13.1952 C   0  0  0  0  0  0  0  0  0  0  0  0
   -7.6726  -10.1683   13.6693 C   0  0  0  0  0  0  0  0  0  0  0  0
   -8.9070  -13.8085   14.0982 C   0  0  0  0  0  0  0  0  0  0  0  0
   -8.1408  -14.5633   14.7244 O   0  0  0  0  0  0  0  0  0  0  0  0
  -10.4470  -20.1699   13.3377 N   0  0  0  0  0  0  0  0  0  0  0  0
  -11.7656  -20.9460   13.2031 C   0  0  0  0  0  0  0  0  0  0  0  0
  -12.2238  -22.7659   12.9650 C   0  0  0  0  0  0  0  0  0  0  0  0
  -12.0412  -23.7780   12.0044 C   0  0  0  0  0  0  0  0  0  0  0  0
  -12.9711  -24.8319   12.2088 C   0  0  0  0  0  0  0  0  0  0  0  0
  -13.7718  -24.4157   13.2293 C   0  0  0  0  0  0  0  0  0  0  0  0
  -13.4083  -23.1808   13.6266 O   0  0  0  0  0  0  0  0  0  0  0  0
  -10.0799  -21.5609   13.9068 C   0  0  0  0  0  0  0  0  0  0  0  0
   -9.7330  -22.2268   14.9879 C   0  0  0  0  0  0  0  0  0  0  0  0
   -9.6745  -23.7224   15.0016 C   0  0  0  0  0  0  0  0  0  0  0  0
   -9.7340  -24.6196   13.8030 C   0  0  0  0  0  0  0  0  0  0  0  0
   -9.2051  -23.8975   12.6236 C   0  0  0  0  0  0  0  0  0  0  0  0
   -9.3927  -22.3584   12.6920 C   0  0  0  0  0  0  0  0  0  0  0  0
  -11.5817  -16.0032   13.9634 H   0  0  0  0  0  0  0  0  0  0  0  0
  -10.9191  -16.4639   12.4145 H   0  0  0  0  0  0  0  0  0  0  0  0
   -8.7424  -12.4342   11.3646 H   0  0  0  0  0  0  0  0  0  0  0  0
   -9.8187  -11.6434   14.6849 H   0  0  0  0  0  0  0  0  0  0  0  0
  -10.0895  -11.6519   12.8803 H   0  0  0  0  0  0  0  0  0  0  0  0
  -10.0996   -9.3151   14.2648 H   0  0  0  0  0  0  0  0  0  0  0  0
  -10.4766   -9.7770   12.5747 H   0  0  0  0  0  0  0  0  0  0  0  0
   -9.2515   -8.9031   10.6226 H   0  0  0  0  0  0  0  0  0  0  0  0
   -6.6045   -7.8757    9.6474 H   0  0  0  0  0  0  0  0  0  0  0  0
   -4.7172   -8.0489   11.6524 H   0  0  0  0  0  0  0  0  0  0  0  0
   -5.2946   -9.9532   13.4606 H   0  0  0  0  0  0  0  0  0  0  0  0
  -12.8108  -20.6827   13.3359 H   0  0  0  0  0  0  0  0  0  0  0  0
  -12.0533  -20.2295   13.9167 H   0  0  0  0  0  0  0  0  0  0  0  0
  -11.3695  -23.7536   11.1669 H   0  0  0  0  0  0  0  0  0  0  0  0
  -13.0693  -25.7470   11.6428 H   0  0  0  0  0  0  0  0  0  0  0  0
  -14.6320  -24.8349   13.7320 H   0  0  0  0  0  0  0  0  0  0  0  0
   -9.7025  -21.7373   15.9408 H   0  0  0  0  0  0  0  0  0  0  0  0
   -8.8086  -23.8995   15.5870 H   0  0  0  0  0  0  0  0  0  0  0  0
  -10.4938  -24.1419   15.5523 H   0  0  0  0  0  0  0  0  0  0  0  0
   -9.2056  -25.5647   13.9679 H   0  0  0  0  0  0  0  0  0  0  0  0
  -10.7552  -24.9669   13.6610 H   0  0  0  0  0  0  0  0  0  0  0  0
   -8.1481  -24.1251   12.4552 H   0  0  0  0  0  0  0  0  0  0  0  0
   -9.6264  -24.3481   11.7222 H   0  0  0  0  0  0  0  0  0  0  0  0
   -8.3831  -21.9270   12.6112 H   0  0  0  0  0  0  0  0  0  0  0  0
   -9.8825  -22.0934   11.7636 H   0  0  0  0  0  0  0  0  0  0  0  0
  1  2  2  0
  2  3  1  0
  3  4  1  0
  4  5  1  0
  5  6  2  0
  5  7  1  0
  7  8  1  0
  8  9  1  0
  9 10  1  0
 10 11  1  0
 11 12  2  0
 12 13  1  0
 13 14  2  0
 14 15  1  0
 15 16  2  0
  8 17  1  0
 17 18  2  0
  2 19  1  0
 19 20  1  0
 20 21  1  0
 21 22  2  0
 22 23  1  0
 23 24  2  0
 24 25  1  0
 19 26  1  0
 26 27  2  0
 27 28  1  0
 28 29  1  0
 29 30  1  0
 30 31  1  0
 17  4  1  0
 25 21  1  0
 31 26  1  0
 16  8  1  0
 16 11  1  0
  3 32  1  0
  3 33  1  0
  7 34  1  0
  9 35  1  0
  9 36  1  0
 10 37  1  0
 10 38  1  0
 12 39  1  0
 13 40  1  0
 14 41  1  0
 15 42  1  0
 20 43  1  0
 20 44  1  0
 22 45  1  0
 23 46  1  0
 24 47  1  0
 27 48  1  0
 28 49  1  0
 28 50  1  0
 29 51  1  0
 29 52  1  0
 30 53  1  0
 30 54  1  0
 31 55  1  0
 31 56  1  0
M  END
>  <Energy>  (623) 
1111.9236382551649

>  <compound_id>  (623) 
46345

>  <target_id>  (623) 
1

>  <reference_id>  (623) 
30

>  <inspiration_ids>  (623) 
[51, 30]

>  <energy_score>  (623) 
1038.6468839551867

>  <distance_score>  (623) 
8.628712286089774

>  <path>  (623) 
/opt/xchem-fragalysis-2/maxwin/BulkDock/SCRATCH/511023/C46345-P30/C46345-P30.minimised.mol

>  <scratch_subdir>  (623) 
/opt/xchem-fragalysis-2/maxwin/BulkDock/SCRATCH/511023/C46345-P30

>  <fragmenstein_runtime>  (623) 
23.481318712234497

>  <fragmenstein_outcome>  (623) 
too moved

>  <fragmenstein_mode>  (623) 
expansion

>  <fragmenstein_error>  (623) 


$$$$
C46350-P51
     RDKit          2D

  0  0  0  0  0  0  0  0  0  0999 V2000
M  END
>  <compound_id>  (624) 
46350

>  <target_id>  (624) 
1

>  <reference_id>  (624) 
51

>  <inspiration_ids>  (624) 
[51, 30]

>  <energy_score>  (624) 
nan

>  <distance_score>  (624) 
nan

>  <path>  (624) 
/opt/xchem-fragalysis-2/maxwin/BulkDock/SCRATCH/511023/C46350-P51/C46350-P51.minimised.mol

>  <scratch_subdir>  (624) 
/opt/xchem-fragalysis-2/maxwin/BulkDock/SCRATCH/511023/C46350-P51

>  <fragmenstein_runtime>  (624) 
1.2097299098968506

>  <fragmenstein_outcome>  (624) 
too distant

>  <fragmenstein_mode>  (624) 
expansion

>  <fragmenstein_error>  (624) 
DistanceError: hit1

$$$$
C46354-P51
     RDKit          2D

  0  0  0  0  0  0  0  0  0  0999 V2000
M  END
>  <compound_id>  (625) 
46354

>  <target_id>  (625) 
1

>  <reference_id>  (625) 
51

>  <inspiration_ids>  (625) 
[51, 30]

>  <energy_score>  (625) 
nan

>  <distance_score>  (625) 
nan

>  <path>  (625) 
/opt/xchem-fragalysis-2/maxwin/BulkDock/SCRATCH/511023/C46354-P51/C46354-P51.minimised.mol

>  <scratch_subdir>  (625) 
/opt/xchem-fragalysis-2/maxwin/BulkDock/SCRATCH/511023/C46354-P51

>  <fragmenstein_runtime>  (625) 
1.432342290878296

>  <fragmenstein_outcome>  (625) 
too distant

>  <fragmenstein_mode>  (625) 
expansion

>  <fragmenstein_error>  (625) 
DistanceError: hit1

$$$$
C46355-P51
     RDKit          3D

 54 57  0  0  0  0  0  0  0  0999 V2000
  -11.1514   -0.6594    5.1817 O   0  0  0  0  0  0  0  0  0  0  0  0
  -11.8163   -1.1644    6.0011 C   0  0  0  0  0  0  0  0  0  0  0  0
  -11.2798   -2.1344    7.0746 C   0  0  0  0  0  0  0  0  0  0  0  0
   -9.8468   -2.2751    6.9820 N   0  0  0  0  0  0  0  0  0  0  0  0
   -9.1888   -3.2563    6.3157 C   0  0  0  0  0  0  0  0  0  0  0  0
   -9.6592   -4.2647    5.8250 O   0  0  0  0  0  0  0  0  0  0  0  0
   -7.8424   -2.9555    6.2908 N   0  0  0  0  0  0  0  0  0  0  0  0
   -7.6012   -1.6664    6.8605 C   0  0  0  0  0  0  0  0  0  0  0  0
   -6.4121   -1.5925    7.8062 C   0  0  0  0  0  0  0  0  0  0  0  0
   -5.8899   -0.1549    7.7676 C   0  0  0  0  0  0  0  0  0  0  0  0
   -6.3668    0.3258    6.4376 C   0  0  0  0  0  0  0  0  0  0  0  0
   -6.1037    1.5408    5.8290 C   0  0  0  0  0  0  0  0  0  0  0  0
   -6.7348    1.8361    4.6238 C   0  0  0  0  0  0  0  0  0  0  0  0
   -7.6336    0.9285    4.0536 C   0  0  0  0  0  0  0  0  0  0  0  0
   -7.9243   -0.2789    4.6864 C   0  0  0  0  0  0  0  0  0  0  0  0
   -7.2936   -0.5657    5.8858 C   0  0  0  0  0  0  0  0  0  0  0  0
   -8.9548   -1.4051    7.5372 C   0  0  0  0  0  0  0  0  0  0  0  0
   -9.1922   -0.5301    8.3595 O   0  0  0  0  0  0  0  0  0  0  0  0
  -13.3272   -0.9675    6.3392 N   0  0  0  0  0  0  0  0  0  0  0  0
  -14.3472   -0.1772    5.6721 C   0  0  0  0  0  0  0  0  0  0  0  0
  -14.7556   -0.8837    4.3756 C   0  0  0  0  0  0  0  0  0  0  0  0
  -15.7088   -0.1059    3.4714 C   0  0  0  0  0  0  0  0  0  0  0  0
  -17.1900   -0.3155    3.7991 C   0  0  0  0  0  0  0  0  0  0  0  0
  -17.8813    0.9195    4.3688 C   0  0  0  0  0  0  0  0  0  0  0  0
  -17.7258    1.1126    5.8741 C   0  0  0  0  0  0  0  0  0  0  0  0
  -16.2977    1.3624    6.3505 C   0  0  0  0  0  0  0  0  0  0  0  0
  -15.5035    0.0852    6.6446 C   0  0  0  0  0  0  0  0  0  0  0  0
  -11.7641   -3.1026    6.9332 H   0  0  0  0  0  0  0  0  0  0  0  0
  -11.5308   -1.6938    8.0437 H   0  0  0  0  0  0  0  0  0  0  0  0
   -7.2240   -3.4732    5.6829 H   0  0  0  0  0  0  0  0  0  0  0  0
   -6.7044   -1.8310    8.8251 H   0  0  0  0  0  0  0  0  0  0  0  0
   -5.6168   -2.2808    7.4920 H   0  0  0  0  0  0  0  0  0  0  0  0
   -4.8035   -0.1311    7.8700 H   0  0  0  0  0  0  0  0  0  0  0  0
   -6.3504    0.4429    8.5598 H   0  0  0  0  0  0  0  0  0  0  0  0
   -5.4778    2.2925    6.2869 H   0  0  0  0  0  0  0  0  0  0  0  0
   -6.5535    2.7883    4.1319 H   0  0  0  0  0  0  0  0  0  0  0  0
   -8.1368    1.1764    3.1221 H   0  0  0  0  0  0  0  0  0  0  0  0
   -8.6728   -0.9450    4.2651 H   0  0  0  0  0  0  0  0  0  0  0  0
  -13.5631   -1.5062    7.1675 H   0  0  0  0  0  0  0  0  0  0  0  0
  -13.8516    0.7662    5.4130 H   0  0  0  0  0  0  0  0  0  0  0  0
  -15.1732   -1.8706    4.6005 H   0  0  0  0  0  0  0  0  0  0  0  0
  -13.8423   -1.0778    3.7960 H   0  0  0  0  0  0  0  0  0  0  0  0
  -15.4369    0.9548    3.4362 H   0  0  0  0  0  0  0  0  0  0  0  0
  -15.5525   -0.4855    2.4523 H   0  0  0  0  0  0  0  0  0  0  0  0
  -17.6975   -0.5519    2.8540 H   0  0  0  0  0  0  0  0  0  0  0  0
  -17.3504   -1.1838    4.4481 H   0  0  0  0  0  0  0  0  0  0  0  0
  -17.5542    1.8215    3.8376 H   0  0  0  0  0  0  0  0  0  0  0  0
  -18.9562    0.8247    4.1659 H   0  0  0  0  0  0  0  0  0  0  0  0
  -18.1695    0.2656    6.4110 H   0  0  0  0  0  0  0  0  0  0  0  0
  -18.3275    1.9894    6.1478 H   0  0  0  0  0  0  0  0  0  0  0  0
  -15.7666    2.0309    5.6639 H   0  0  0  0  0  0  0  0  0  0  0  0
  -16.3758    1.9139    7.2975 H   0  0  0  0  0  0  0  0  0  0  0  0
  -15.0774    0.2110    7.6506 H   0  0  0  0  0  0  0  0  0  0  0  0
  -16.1532   -0.7953    6.7175 H   0  0  0  0  0  0  0  0  0  0  0  0
  1  2  2  0
  2  3  1  0
  3  4  1  0
  4  5  1  0
  5  6  2  0
  5  7  1  0
  7  8  1  0
  8  9  1  0
  9 10  1  0
 10 11  1  0
 11 12  2  0
 12 13  1  0
 13 14  2  0
 14 15  1  0
 15 16  2  0
  8 17  1  0
 17 18  2  0
  2 19  1  0
 19 20  1  0
 20 21  1  0
 21 22  1  0
 22 23  1  0
 23 24  1  0
 24 25  1  0
 25 26  1  0
 26 27  1  0
 17  4  1  0
 27 20  1  0
 16  8  1  0
 16 11  1  0
  3 28  1  0
  3 29  1  0
  7 30  1  0
  9 31  1  0
  9 32  1  0
 10 33  1  0
 10 34  1  0
 12 35  1  0
 13 36  1  0
 14 37  1  0
 15 38  1  0
 19 39  1  0
 20 40  1  0
 21 41  1  0
 21 42  1  0
 22 43  1  0
 22 44  1  0
 23 45  1  0
 23 46  1  0
 24 47  1  0
 24 48  1  0
 25 49  1  0
 25 50  1  0
 26 51  1  0
 26 52  1  0
 27 53  1  0
 27 54  1  0
M  END
>  <Energy>  (626) 
3.9205139110731029

>  <compound_id>  (626) 
46355

>  <target_id>  (626) 
1

>  <reference_id>  (626) 
51

>  <inspiration_ids>  (626) 
[51, 30]

>  <energy_score>  (626) 
-34.27118087783472

>  <distance_score>  (626) 
1.010831951503744

>  <path>  (626) 
/opt/xchem-fragalysis-2/maxwin/BulkDock/SCRATCH/511023/C46355-P51/C46355-P51.minimised.mol

>  <scratch_subdir>  (626) 
/opt/xchem-fragalysis-2/maxwin/BulkDock/SCRATCH/511023/C46355-P51

>  <fragmenstein_runtime>  (626) 
5.9825921058654785

>  <fragmenstein_outcome>  (626) 
too moved

>  <fragmenstein_mode>  (626) 
expansion

>  <fragmenstein_error>  (626) 


$$$$
C46355-P30
     RDKit          3D

 54 57  0  0  0  0  0  0  0  0999 V2000
  -11.3055   -0.4796    5.3745 O   0  0  0  0  0  0  0  0  0  0  0  0
  -11.9096   -1.0372    6.2053 C   0  0  0  0  0  0  0  0  0  0  0  0
  -11.3044   -2.0897    7.1597 C   0  0  0  0  0  0  0  0  0  0  0  0
   -9.8988   -2.3082    6.9125 N   0  0  0  0  0  0  0  0  0  0  0  0
   -9.3352   -3.3617    6.2626 C   0  0  0  0  0  0  0  0  0  0  0  0
   -9.8367   -4.4181    5.9228 O   0  0  0  0  0  0  0  0  0  0  0  0
   -7.9968   -3.0921    6.0705 N   0  0  0  0  0  0  0  0  0  0  0  0
   -7.6558   -1.7962    6.5683 C   0  0  0  0  0  0  0  0  0  0  0  0
   -6.3678   -1.7589    7.3743 C   0  0  0  0  0  0  0  0  0  0  0  0
   -5.5110   -0.5960    6.8860 C   0  0  0  0  0  0  0  0  0  0  0  0
   -6.2844   -0.0223    5.7485 C   0  0  0  0  0  0  0  0  0  0  0  0
   -6.0037    1.1062    4.9913 C   0  0  0  0  0  0  0  0  0  0  0  0
   -6.9005    1.5072    4.0057 C   0  0  0  0  0  0  0  0  0  0  0  0
   -8.0487    0.7589    3.7551 C   0  0  0  0  0  0  0  0  0  0  0  0
   -8.3144   -0.3886    4.4957 C   0  0  0  0  0  0  0  0  0  0  0  0
   -7.4439   -0.7528    5.5130 C   0  0  0  0  0  0  0  0  0  0  0  0
   -8.9220   -1.4701    7.3708 C   0  0  0  0  0  0  0  0  0  0  0  0
   -9.0439   -0.5784    8.2005 O   0  0  0  0  0  0  0  0  0  0  0  0
  -13.3860   -0.8587    6.6713 N   0  0  0  0  0  0  0  0  0  0  0  0
  -14.4454   -0.0211    6.1419 C   0  0  0  0  0  0  0  0  0  0  0  0
  -14.7611   -0.3906    4.6852 C   0  0  0  0  0  0  0  0  0  0  0  0
  -14.5533    0.7594    3.6987 C   0  0  0  0  0  0  0  0  0  0  0  0
  -15.1372    2.1226    4.0756 C   0  0  0  0  0  0  0  0  0  0  0  0
  -16.5976    2.1239    4.5249 C   0  0  0  0  0  0  0  0  0  0  0  0
  -16.8119    2.0071    6.0407 C   0  0  0  0  0  0  0  0  0  0  0  0
  -16.9537    0.5792    6.5656 C   0  0  0  0  0  0  0  0  0  0  0  0
  -15.6671   -0.0828    7.0655 C   0  0  0  0  0  0  0  0  0  0  0  0
  -11.8546   -3.0244    7.0375 H   0  0  0  0  0  0  0  0  0  0  0  0
  -11.4246   -1.6780    8.1668 H   0  0  0  0  0  0  0  0  0  0  0  0
   -7.4218   -3.7056    5.5116 H   0  0  0  0  0  0  0  0  0  0  0  0
   -6.5682   -1.6104    8.4370 H   0  0  0  0  0  0  0  0  0  0  0  0
   -5.7983   -2.6872    7.2501 H   0  0  0  0  0  0  0  0  0  0  0  0
   -4.5416   -0.9775    6.5531 H   0  0  0  0  0  0  0  0  0  0  0  0
   -5.3806    0.1391    7.6860 H   0  0  0  0  0  0  0  0  0  0  0  0
   -5.1237    1.7132    5.1304 H   0  0  0  0  0  0  0  0  0  0  0  0
   -6.7039    2.4020    3.4207 H   0  0  0  0  0  0  0  0  0  0  0  0
   -8.7495    1.0736    2.9859 H   0  0  0  0  0  0  0  0  0  0  0  0
   -9.2225   -0.9520    4.3013 H   0  0  0  0  0  0  0  0  0  0  0  0
  -13.6113   -1.5656    7.3628 H   0  0  0  0  0  0  0  0  0  0  0  0
  -14.0219    0.9864    6.1885 H   0  0  0  0  0  0  0  0  0  0  0  0
  -15.7846   -0.7649    4.5807 H   0  0  0  0  0  0  0  0  0  0  0  0
  -14.1252   -1.2198    4.3488 H   0  0  0  0  0  0  0  0  0  0  0  0
  -13.4760    0.8893    3.5325 H   0  0  0  0  0  0  0  0  0  0  0  0
  -14.9697    0.4531    2.7304 H   0  0  0  0  0  0  0  0  0  0  0  0
  -15.0610    2.7526    3.1789 H   0  0  0  0  0  0  0  0  0  0  0  0
  -14.5077    2.6179    4.8235 H   0  0  0  0  0  0  0  0  0  0  0  0
  -17.0121    3.0977    4.2297 H   0  0  0  0  0  0  0  0  0  0  0  0
  -17.1809    1.3741    3.9785 H   0  0  0  0  0  0  0  0  0  0  0  0
  -17.7630    2.5130    6.2566 H   0  0  0  0  0  0  0  0  0  0  0  0
  -16.0474    2.5605    6.5977 H   0  0  0  0  0  0  0  0  0  0  0  0
  -17.6435    0.6028    7.4202 H   0  0  0  0  0  0  0  0  0  0  0  0
  -17.4477   -0.0545    5.8204 H   0  0  0  0  0  0  0  0  0  0  0  0
  -15.3924    0.3683    8.0289 H   0  0  0  0  0  0  0  0  0  0  0  0
  -15.9027   -1.1309    7.2945 H   0  0  0  0  0  0  0  0  0  0  0  0
  1  2  2  0
  2  3  1  0
  3  4  1  0
  4  5  1  0
  5  6  2  0
  5  7  1  0
  7  8  1  0
  8  9  1  0
  9 10  1  0
 10 11  1  0
 11 12  2  0
 12 13  1  0
 13 14  2  0
 14 15  1  0
 15 16  2  0
  8 17  1  0
 17 18  2  0
  2 19  1  0
 19 20  1  0
 20 21  1  0
 21 22  1  0
 22 23  1  0
 23 24  1  0
 24 25  1  0
 25 26  1  0
 26 27  1  0
 17  4  1  0
 27 20  1  0
 16  8  1  0
 16 11  1  0
  3 28  1  0
  3 29  1  0
  7 30  1  0
  9 31  1  0
  9 32  1  0
 10 33  1  0
 10 34  1  0
 12 35  1  0
 13 36  1  0
 14 37  1  0
 15 38  1  0
 19 39  1  0
 20 40  1  0
 21 41  1  0
 21 42  1  0
 22 43  1  0
 22 44  1  0
 23 45  1  0
 23 46  1  0
 24 47  1  0
 24 48  1  0
 25 49  1  0
 25 50  1  0
 26 51  1  0
 26 52  1  0
 27 53  1  0
 27 54  1  0
M  END
>  <Energy>  (627) 
8.858972635701921

>  <compound_id>  (627) 
46355

>  <target_id>  (627) 
1

>  <reference_id>  (627) 
30

>  <inspiration_ids>  (627) 
[51, 30]

>  <energy_score>  (627) 
-29.332722153206305

>  <distance_score>  (627) 
1.108254584190721

>  <path>  (627) 
/opt/xchem-fragalysis-2/maxwin/BulkDock/SCRATCH/511023/C46355-P30/C46355-P30.minimised.mol

>  <scratch_subdir>  (627) 
/opt/xchem-fragalysis-2/maxwin/BulkDock/SCRATCH/511023/C46355-P30

>  <fragmenstein_runtime>  (627) 
6.190875291824341

>  <fragmenstein_outcome>  (627) 
too moved

>  <fragmenstein_mode>  (627) 
expansion

>  <fragmenstein_error>  (627) 


$$$$
C46356-P51
     RDKit          3D

 48 51  0  0  0  0  0  0  0  0999 V2000
  -12.9635  -11.2760   10.0693 O   0  0  0  0  0  0  0  0  0  0  0  0
  -13.7905  -11.9529   10.6000 C   0  0  0  0  0  0  0  0  0  0  0  0
  -13.4979  -14.0862   11.0822 C   0  0  0  0  0  0  0  0  0  0  0  0
  -13.4411  -16.0366   10.4105 N   0  0  0  0  0  0  0  0  0  0  0  0
  -14.1750  -17.1523   10.3497 C   0  0  0  0  0  0  0  0  0  0  0  0
  -15.3510  -17.3568   10.5884 O   0  0  0  0  0  0  0  0  0  0  0  0
  -13.1309  -18.1751   10.0024 N   0  0  0  0  0  0  0  0  0  0  0  0
  -11.3444  -18.6079    9.5688 C   0  0  0  0  0  0  0  0  0  0  0  0
   -9.9947  -19.4760   10.8675 C   0  0  0  0  0  0  0  0  0  0  0  0
   -9.6573  -21.1341   10.5565 C   0  0  0  0  0  0  0  0  0  0  0  0
  -10.1498  -21.2154    9.1057 C   0  0  0  0  0  0  0  0  0  0  0  0
  -10.0123  -22.4909    8.5110 C   0  0  0  0  0  0  0  0  0  0  0  0
  -10.2203  -22.6461    7.1649 C   0  0  0  0  0  0  0  0  0  0  0  0
  -10.4462  -21.5017    6.4380 C   0  0  0  0  0  0  0  0  0  0  0  0
  -10.6311  -20.2394    7.0707 C   0  0  0  0  0  0  0  0  0  0  0  0
  -10.7649  -20.0189    8.4660 C   0  0  0  0  0  0  0  0  0  0  0  0
  -12.4221  -16.9107    9.2862 C   0  0  0  0  0  0  0  0  0  0  0  0
  -12.2140  -16.2763    8.2130 O   0  0  0  0  0  0  0  0  0  0  0  0
  -15.3440  -11.3990   10.9257 N   0  0  0  0  0  0  0  0  0  0  0  0
  -16.0317  -10.1155   10.5743 C   0  0  0  0  0  0  0  0  0  0  0  0
  -15.3513   -8.7684   11.0100 C   0  0  0  0  0  0  0  0  0  0  0  0
  -14.5213   -8.0599    9.9246 C   0  0  0  0  0  0  0  0  0  0  0  0
  -15.3287   -7.7155    8.6816 C   0  0  0  0  0  0  0  0  0  0  0  0
  -16.5104   -8.6586    8.4878 C   0  0  0  0  0  0  0  0  0  0  0  0
  -16.2417  -10.0647    9.0374 C   0  0  0  0  0  0  0  0  0  0  0  0
  -12.7411  -14.1671   11.8867 H   0  0  0  0  0  0  0  0  0  0  0  0
  -14.5412  -14.4577   11.2573 H   0  0  0  0  0  0  0  0  0  0  0  0
  -12.8472  -17.6028   10.8006 H   0  0  0  0  0  0  0  0  0  0  0  0
  -10.0571  -19.2643   11.9499 H   0  0  0  0  0  0  0  0  0  0  0  0
   -8.9029  -19.5643   10.7749 H   0  0  0  0  0  0  0  0  0  0  0  0
  -10.2000  -21.8146   11.2349 H   0  0  0  0  0  0  0  0  0  0  0  0
   -8.6263  -21.3755   10.7303 H   0  0  0  0  0  0  0  0  0  0  0  0
   -9.6957  -23.3399    9.1128 H   0  0  0  0  0  0  0  0  0  0  0  0
  -10.0950  -23.6080    6.6804 H   0  0  0  0  0  0  0  0  0  0  0  0
  -10.4475  -21.5490    5.3497 H   0  0  0  0  0  0  0  0  0  0  0  0
  -10.5634  -19.4903    6.2971 H   0  0  0  0  0  0  0  0  0  0  0  0
  -15.8888  -12.1713   11.2966 H   0  0  0  0  0  0  0  0  0  0  0  0
  -17.0053  -10.1748   11.0752 H   0  0  0  0  0  0  0  0  0  0  0  0
  -16.1625   -8.0789   11.2855 H   0  0  0  0  0  0  0  0  0  0  0  0
  -14.7561   -8.8681   11.9182 H   0  0  0  0  0  0  0  0  0  0  0  0
  -13.6849   -8.7008    9.6286 H   0  0  0  0  0  0  0  0  0  0  0  0
  -14.0979   -7.1357   10.3317 H   0  0  0  0  0  0  0  0  0  0  0  0
  -15.6992   -6.6854    8.7422 H   0  0  0  0  0  0  0  0  0  0  0  0
  -14.6721   -7.7563    7.8048 H   0  0  0  0  0  0  0  0  0  0  0  0
  -16.7590   -8.7159    7.4218 H   0  0  0  0  0  0  0  0  0  0  0  0
  -17.3945   -8.2457    8.9899 H   0  0  0  0  0  0  0  0  0  0  0  0
  -17.0770  -10.7260    8.7758 H   0  0  0  0  0  0  0  0  0  0  0  0
  -15.3660  -10.4709    8.5223 H   0  0  0  0  0  0  0  0  0  0  0  0
  1  2  2  0
  2  3  1  0
  3  4  1  0
  4  5  1  0
  5  6  2  0
  5  7  1  0
  7  8  1  0
  8  9  1  0
  9 10  1  0
 10 11  1  0
 11 12  2  0
 12 13  1  0
 13 14  2  0
 14 15  1  0
 15 16  2  0
  8 17  1  0
 17 18  2  0
  2 19  1  0
 19 20  1  0
 20 21  1  0
 21 22  1  0
 22 23  1  0
 23 24  1  0
 24 25  1  0
 17  4  1  0
 25 20  1  0
 16  8  1  0
 16 11  1  0
  3 26  1  0
  3 27  1  0
  7 28  1  0
  9 29  1  0
  9 30  1  0
 10 31  1  0
 10 32  1  0
 12 33  1  0
 13 34  1  0
 14 35  1  0
 15 36  1  0
 19 37  1  0
 20 38  1  0
 21 39  1  0
 21 40  1  0
 22 41  1  0
 22 42  1  0
 23 43  1  0
 23 44  1  0
 24 45  1  0
 24 46  1  0
 25 47  1  0
 25 48  1  0
M  END
>  <Energy>  (628) 
858.85265164601151

>  <compound_id>  (628) 
46356

>  <target_id>  (628) 
1

>  <reference_id>  (628) 
51

>  <inspiration_ids>  (628) 
[51, 30]

>  <energy_score>  (628) 
852.0952377629925

>  <distance_score>  (628) 
10.643873124967298

>  <path>  (628) 
/opt/xchem-fragalysis-2/maxwin/BulkDock/SCRATCH/511023/C46356-P51/C46356-P51.minimised.mol

>  <scratch_subdir>  (628) 
/opt/xchem-fragalysis-2/maxwin/BulkDock/SCRATCH/511023/C46356-P51

>  <fragmenstein_runtime>  (628) 
13.527206897735596

>  <fragmenstein_outcome>  (628) 
too moved

>  <fragmenstein_mode>  (628) 
expansion

>  <fragmenstein_error>  (628) 


$$$$
C46356-P30
     RDKit          3D

 48 51  0  0  0  0  0  0  0  0999 V2000
  -11.8747  -15.1580   13.7152 O   0  0  0  0  0  0  0  0  0  0  0  0
  -10.8660  -15.3960   13.1068 C   0  0  0  0  0  0  0  0  0  0  0  0
   -9.9112  -17.2225   13.1049 C   0  0  0  0  0  0  0  0  0  0  0  0
   -9.5458  -19.0801   12.4890 N   0  0  0  0  0  0  0  0  0  0  0  0
   -8.6098  -19.9982   11.8796 C   0  0  0  0  0  0  0  0  0  0  0  0
   -7.4164  -19.9394   11.5997 O   0  0  0  0  0  0  0  0  0  0  0  0
   -9.0298  -21.3578   11.9698 N   0  0  0  0  0  0  0  0  0  0  0  0
  -10.0408  -21.7900   12.9426 C   0  0  0  0  0  0  0  0  0  0  0  0
   -9.2597  -22.6916   13.8846 C   0  0  0  0  0  0  0  0  0  0  0  0
   -9.1099  -24.0495   13.0926 C   0  0  0  0  0  0  0  0  0  0  0  0
  -10.3235  -24.1529   12.2964 C   0  0  0  0  0  0  0  0  0  0  0  0
  -10.7891  -25.3713   11.7804 C   0  0  0  0  0  0  0  0  0  0  0  0
  -12.1479  -25.5423   11.6664 C   0  0  0  0  0  0  0  0  0  0  0  0
  -12.9529  -24.5442   12.1812 C   0  0  0  0  0  0  0  0  0  0  0  0
  -12.3869  -23.3383   12.6675 C   0  0  0  0  0  0  0  0  0  0  0  0
  -11.0349  -22.9996   12.5410 C   0  0  0  0  0  0  0  0  0  0  0  0
  -10.3523  -20.2191   13.2317 C   0  0  0  0  0  0  0  0  0  0  0  0
  -11.0128  -19.7273   14.0853 O   0  0  0  0  0  0  0  0  0  0  0  0
  -10.1199  -14.5826   12.2079 N   0  0  0  0  0  0  0  0  0  0  0  0
  -10.4301  -12.9047   11.5073 C   0  0  0  0  0  0  0  0  0  0  0  0
  -10.2264  -12.5071    9.5820 C   0  0  0  0  0  0  0  0  0  0  0  0
   -9.7260  -10.8631    8.4300 C   0  0  0  0  0  0  0  0  0  0  0  0
  -10.5939   -9.9114    9.9622 C   0  0  0  0  0  0  0  0  0  0  0  0
  -10.0942  -10.0319   11.8498 C   0  0  0  0  0  0  0  0  0  0  0  0
   -9.7918  -11.6837   12.4116 C   0  0  0  0  0  0  0  0  0  0  0  0
  -10.5925  -17.6089   13.8367 H   0  0  0  0  0  0  0  0  0  0  0  0
   -8.9213  -17.0005   13.4909 H   0  0  0  0  0  0  0  0  0  0  0  0
   -8.1623  -21.8667   11.9196 H   0  0  0  0  0  0  0  0  0  0  0  0
   -9.7903  -22.8733   14.8222 H   0  0  0  0  0  0  0  0  0  0  0  0
   -8.2866  -22.2839   14.1587 H   0  0  0  0  0  0  0  0  0  0  0  0
   -8.2402  -24.1147   12.4352 H   0  0  0  0  0  0  0  0  0  0  0  0
   -9.1521  -24.8922   13.7946 H   0  0  0  0  0  0  0  0  0  0  0  0
  -10.1109  -26.2006   11.6008 H   0  0  0  0  0  0  0  0  0  0  0  0
  -12.5708  -26.4722   11.3015 H   0  0  0  0  0  0  0  0  0  0  0  0
  -14.0307  -24.6847   12.2261 H   0  0  0  0  0  0  0  0  0  0  0  0
  -13.1345  -22.6788   13.0745 H   0  0  0  0  0  0  0  0  0  0  0  0
   -9.3687  -15.0260   11.9749 H   0  0  0  0  0  0  0  0  0  0  0  0
   -9.3636  -13.0147   11.3686 H   0  0  0  0  0  0  0  0  0  0  0  0
   -9.3172  -13.1681    9.6116 H   0  0  0  0  0  0  0  0  0  0  0  0
  -10.2564  -13.1113    8.7115 H   0  0  0  0  0  0  0  0  0  0  0  0
  -10.0792  -10.0517    7.7239 H   0  0  0  0  0  0  0  0  0  0  0  0
   -8.6836  -10.8726    7.9898 H   0  0  0  0  0  0  0  0  0  0  0  0
  -10.2576   -9.0359    9.5304 H   0  0  0  0  0  0  0  0  0  0  0  0
  -11.6771   -9.7831    9.7793 H   0  0  0  0  0  0  0  0  0  0  0  0
   -9.1289   -9.5088   11.9580 H   0  0  0  0  0  0  0  0  0  0  0  0
  -10.5981   -9.5482   12.6636 H   0  0  0  0  0  0  0  0  0  0  0  0
   -9.7375  -11.8140   13.4951 H   0  0  0  0  0  0  0  0  0  0  0  0
   -8.7125  -11.8424   12.3909 H   0  0  0  0  0  0  0  0  0  0  0  0
  1  2  2  0
  2  3  1  0
  3  4  1  0
  4  5  1  0
  5  6  2  0
  5  7  1  0
  7  8  1  0
  8  9  1  0
  9 10  1  0
 10 11  1  0
 11 12  2  0
 12 13  1  0
 13 14  2  0
 14 15  1  0
 15 16  2  0
  8 17  1  0
 17 18  2  0
  2 19  1  0
 19 20  1  0
 20 21  1  0
 21 22  1  0
 22 23  1  0
 23 24  1  0
 24 25  1  0
 17  4  1  0
 25 20  1  0
 16  8  1  0
 16 11  1  0
  3 26  1  0
  3 27  1  0
  7 28  1  0
  9 29  1  0
  9 30  1  0
 10 31  1  0
 10 32  1  0
 12 33  1  0
 13 34  1  0
 14 35  1  0
 15 36  1  0
 19 37  1  0
 20 38  1  0
 21 39  1  0
 21 40  1  0
 22 41  1  0
 22 42  1  0
 23 43  1  0
 23 44  1  0
 24 45  1  0
 24 46  1  0
 25 47  1  0
 25 48  1  0
M  END
>  <Energy>  (629) 
694.96089322835007

>  <compound_id>  (629) 
46356

>  <target_id>  (629) 
1

>  <reference_id>  (629) 
30

>  <inspiration_ids>  (629) 
[51, 30]

>  <energy_score>  (629) 
688.2034793453342

>  <distance_score>  (629) 
9.869341236636561

>  <path>  (629) 
/opt/xchem-fragalysis-2/maxwin/BulkDock/SCRATCH/511023/C46356-P30/C46356-P30.minimised.mol

>  <scratch_subdir>  (629) 
/opt/xchem-fragalysis-2/maxwin/BulkDock/SCRATCH/511023/C46356-P30

>  <fragmenstein_runtime>  (629) 
18.375364065170288

>  <fragmenstein_outcome>  (629) 
too moved

>  <fragmenstein_mode>  (629) 
expansion

>  <fragmenstein_error>  (629) 


$$$$
C46357-P51
     RDKit          3D

 58 62  0  0  0  0  0  0  0  0999 V2000
  -13.7156   -1.0656    9.5052 O   0  0  0  0  0  0  0  0  0  0  0  0
  -12.6454   -0.9442    8.9421 C   0  0  0  0  0  0  0  0  0  0  0  0
  -12.4972   -0.9481    7.5550 N   0  0  0  0  0  0  0  0  0  0  0  0
  -11.1243   -0.7375    7.2048 C   0  0  0  0  0  0  0  0  0  0  0  0
  -10.3777   -2.0764    6.9994 C   0  0  0  0  0  0  0  0  0  0  0  0
   -9.3454   -1.9015    5.8748 C   0  0  0  0  0  0  0  0  0  0  0  0
   -9.7064   -0.5783    5.2878 C   0  0  0  0  0  0  0  0  0  0  0  0
   -9.0749    0.0405    4.2186 C   0  0  0  0  0  0  0  0  0  0  0  0
   -9.5265    1.2968    3.8208 C   0  0  0  0  0  0  0  0  0  0  0  0
  -10.5993    1.9076    4.4854 C   0  0  0  0  0  0  0  0  0  0  0  0
  -11.2242    1.2786    5.5667 C   0  0  0  0  0  0  0  0  0  0  0  0
  -10.7651    0.0352    5.9736 C   0  0  0  0  0  0  0  0  0  0  0  0
  -10.8585    0.0268    8.5115 C   0  0  0  0  0  0  0  0  0  0  0  0
  -10.3615    1.1410    8.6044 O   0  0  0  0  0  0  0  0  0  0  0  0
  -11.4765   -0.6107    9.5271 N   0  0  0  0  0  0  0  0  0  0  0  0
  -11.1946   -0.4574   10.9953 C   0  0  0  0  0  0  0  0  0  0  0  0
  -10.1633   -1.6895   11.4258 C   0  0  0  0  0  0  0  0  0  0  0  0
  -10.4374   -2.6326   10.8632 O   0  0  0  0  0  0  0  0  0  0  0  0
   -9.1941   -1.5288   12.4256 N   0  0  0  0  0  0  0  0  0  0  0  0
   -7.4922   -0.9507   11.5539 C   0  0  0  0  0  0  0  0  0  0  0  0
   -6.9509   -1.1135    9.7017 C   0  0  0  0  0  0  0  0  0  0  0  0
   -7.5922   -0.4144    8.5398 C   0  0  0  0  0  0  0  0  0  0  0  0
   -7.6859    0.8926    9.1692 C   0  0  0  0  0  0  0  0  0  0  0  0
   -8.2701    0.4277   10.5016 C   0  0  0  0  0  0  0  0  0  0  0  0
   -8.0286   -2.9542   13.4247 C   0  0  0  0  0  0  0  0  0  0  0  0
   -8.4606   -4.6624   13.0179 C   0  0  0  0  0  0  0  0  0  0  0  0
   -9.5345   -5.3601   13.7583 C   0  0  0  0  0  0  0  0  0  0  0  0
   -9.2091   -5.2571   15.3460 S   0  0  0  0  0  0  0  0  0  0  0  0
   -7.9674   -5.9196   15.6210 O   0  0  0  0  0  0  0  0  0  0  0  0
  -10.3586   -5.5795   16.1540 O   0  0  0  0  0  0  0  0  0  0  0  0
   -9.1877   -3.6089   14.8908 C   0  0  0  0  0  0  0  0  0  0  0  0
  -13.2092   -1.3476    6.9598 H   0  0  0  0  0  0  0  0  0  0  0  0
   -9.8732   -2.4396    7.8959 H   0  0  0  0  0  0  0  0  0  0  0  0
  -11.0836   -2.8625    6.6975 H   0  0  0  0  0  0  0  0  0  0  0  0
   -9.4402   -2.7025    5.1344 H   0  0  0  0  0  0  0  0  0  0  0  0
   -8.3224   -1.8959    6.2583 H   0  0  0  0  0  0  0  0  0  0  0  0
   -8.2458   -0.4369    3.7050 H   0  0  0  0  0  0  0  0  0  0  0  0
   -9.0472    1.8052    2.9885 H   0  0  0  0  0  0  0  0  0  0  0  0
  -10.9381    2.8909    4.1689 H   0  0  0  0  0  0  0  0  0  0  0  0
  -12.0202    1.7813    6.1087 H   0  0  0  0  0  0  0  0  0  0  0  0
  -10.8698    0.5688   11.1596 H   0  0  0  0  0  0  0  0  0  0  0  0
  -12.1216   -0.6207   11.5546 H   0  0  0  0  0  0  0  0  0  0  0  0
   -6.6793   -0.4509   12.1383 H   0  0  0  0  0  0  0  0  0  0  0  0
   -5.9324   -0.6911    9.6211 H   0  0  0  0  0  0  0  0  0  0  0  0
   -6.9621   -2.1232    9.3349 H   0  0  0  0  0  0  0  0  0  0  0  0
   -8.5405   -0.8663    8.2982 H   0  0  0  0  0  0  0  0  0  0  0  0
   -6.9648   -0.4138    7.6430 H   0  0  0  0  0  0  0  0  0  0  0  0
   -6.7100    1.3449    9.1728 H   0  0  0  0  0  0  0  0  0  0  0  0
   -8.2968    1.6029    8.6166 H   0  0  0  0  0  0  0  0  0  0  0  0
   -9.1501   -0.0946   10.1919 H   0  0  0  0  0  0  0  0  0  0  0  0
   -8.6815    1.3167   10.9789 H   0  0  0  0  0  0  0  0  0  0  0  0
   -7.3249   -2.5690   14.2060 H   0  0  0  0  0  0  0  0  0  0  0  0
   -7.5554   -5.2315   12.9766 H   0  0  0  0  0  0  0  0  0  0  0  0
   -8.8921   -4.7539   12.0268 H   0  0  0  0  0  0  0  0  0  0  0  0
  -10.4125   -4.9706   13.3396 H   0  0  0  0  0  0  0  0  0  0  0  0
   -9.8012   -6.3809   13.9311 H   0  0  0  0  0  0  0  0  0  0  0  0
   -9.0551   -3.0407   15.8019 H   0  0  0  0  0  0  0  0  0  0  0  0
  -10.2080   -3.4044   14.5903 H   0  0  0  0  0  0  0  0  0  0  0  0
  1  2  2  0
  2  3  1  0
  3  4  1  0
  4  5  1  0
  5  6  1  0
  6  7  1  0
  7  8  2  0
  8  9  1  0
  9 10  2  0
 10 11  1  0
 11 12  2  0
  4 13  1  0
 13 14  2  0
 13 15  1  0
 15 16  1  0
 16 17  1  0
 17 18  2  0
 17 19  1  0
 19 20  1  0
 20 21  1  0
 21 22  1  0
 22 23  1  0
 23 24  1  0
 19 25  1  0
 25 26  1  0
 26 27  1  0
 27 28  1  0
 28 29  2  0
 28 30  2  0
 28 31  1  0
 15  2  1  0
 24 20  1  0
 31 25  1  0
 12  4  1  0
 12  7  1  0
  3 32  1  0
  5 33  1  0
  5 34  1  0
  6 35  1  0
  6 36  1  0
  8 37  1  0
  9 38  1  0
 10 39  1  0
 11 40  1  0
 16 41  1  0
 16 42  1  0
 20 43  1  0
 21 44  1  0
 21 45  1  0
 22 46  1  0
 22 47  1  0
 23 48  1  0
 23 49  1  0
 24 50  1  0
 24 51  1  0
 25 52  1  0
 26 53  1  0
 26 54  1  0
 27 55  1  0
 27 56  1  0
 31 57  1  0
 31 58  1  0
M  END
>  <Energy>  (630) 
527.37007685602646

>  <compound_id>  (630) 
46357

>  <target_id>  (630) 
1

>  <reference_id>  (630) 
51

>  <inspiration_ids>  (630) 
[51, 30]

>  <energy_score>  (630) 
493.3144904452332

>  <distance_score>  (630) 
4.272536647162219

>  <path>  (630) 
/opt/xchem-fragalysis-2/maxwin/BulkDock/SCRATCH/511023/C46357-P51/C46357-P51.minimised.mol

>  <scratch_subdir>  (630) 
/opt/xchem-fragalysis-2/maxwin/BulkDock/SCRATCH/511023/C46357-P51

>  <fragmenstein_runtime>  (630) 
12.344990015029907

>  <fragmenstein_outcome>  (630) 
too moved

>  <fragmenstein_mode>  (630) 
expansion

>  <fragmenstein_error>  (630) 


$$$$
C46357-P30
     RDKit          3D

 58 62  0  0  0  0  0  0  0  0999 V2000
  -11.4813   -0.5696    7.2435 O   0  0  0  0  0  0  0  0  0  0  0  0
  -10.2643   -0.5126    7.1876 C   0  0  0  0  0  0  0  0  0  0  0  0
   -9.5334   -0.9105    6.0914 N   0  0  0  0  0  0  0  0  0  0  0  0
   -8.1364   -0.9685    6.4021 C   0  0  0  0  0  0  0  0  0  0  0  0
   -7.5450   -2.3872    6.3797 C   0  0  0  0  0  0  0  0  0  0  0  0
   -6.0560   -2.2142    6.0298 C   0  0  0  0  0  0  0  0  0  0  0  0
   -6.0863   -0.9647    5.2006 C   0  0  0  0  0  0  0  0  0  0  0  0
   -5.1105   -0.4805    4.3488 C   0  0  0  0  0  0  0  0  0  0  0  0
   -5.3332    0.7426    3.7103 C   0  0  0  0  0  0  0  0  0  0  0  0
   -6.5165    1.4634    3.9312 C   0  0  0  0  0  0  0  0  0  0  0  0
   -7.4945    0.9706    4.7936 C   0  0  0  0  0  0  0  0  0  0  0  0
   -7.2671   -0.2456    5.4206 C   0  0  0  0  0  0  0  0  0  0  0  0
   -8.1151   -0.3614    7.8076 C   0  0  0  0  0  0  0  0  0  0  0  0
   -7.1220   -0.1857    8.5042 O   0  0  0  0  0  0  0  0  0  0  0  0
   -9.4081   -0.0889    8.1658 N   0  0  0  0  0  0  0  0  0  0  0  0
   -9.8185    0.0706    9.5592 C   0  0  0  0  0  0  0  0  0  0  0  0
   -9.9551   -1.3742   10.1173 C   0  0  0  0  0  0  0  0  0  0  0  0
   -9.8280   -2.2430    9.2976 O   0  0  0  0  0  0  0  0  0  0  0  0
  -10.1271   -1.4557   11.6439 N   0  0  0  0  0  0  0  0  0  0  0  0
  -11.5806   -1.4873   11.9741 C   0  0  0  0  0  0  0  0  0  0  0  0
  -12.1093   -0.0059   12.7756 C   0  0  0  0  0  0  0  0  0  0  0  0
  -12.2082    1.1808   11.8316 C   0  0  0  0  0  0  0  0  0  0  0  0
  -12.9163    0.6057   10.6640 C   0  0  0  0  0  0  0  0  0  0  0  0
  -12.6219   -0.8914   10.7268 C   0  0  0  0  0  0  0  0  0  0  0  0
  -10.0312   -3.0423   12.8898 C   0  0  0  0  0  0  0  0  0  0  0  0
   -9.5378   -4.5673   12.7760 C   0  0  0  0  0  0  0  0  0  0  0  0
   -8.8007   -4.9600   14.1183 C   0  0  0  0  0  0  0  0  0  0  0  0
   -9.7636   -4.3609   15.6524 S   0  0  0  0  0  0  0  0  0  0  0  0
  -10.4079   -5.5326   16.1658 O   0  0  0  0  0  0  0  0  0  0  0  0
   -9.9093   -3.1758   16.4989 O   0  0  0  0  0  0  0  0  0  0  0  0
  -10.2945   -3.3015   14.4526 C   0  0  0  0  0  0  0  0  0  0  0  0
   -9.9982   -1.4703    5.3869 H   0  0  0  0  0  0  0  0  0  0  0  0
   -7.6827   -2.9336    7.3177 H   0  0  0  0  0  0  0  0  0  0  0  0
   -8.0263   -2.9831    5.5907 H   0  0  0  0  0  0  0  0  0  0  0  0
   -5.6769   -3.0752    5.4722 H   0  0  0  0  0  0  0  0  0  0  0  0
   -5.4513   -2.0546    6.9284 H   0  0  0  0  0  0  0  0  0  0  0  0
   -4.1894   -1.0307    4.1868 H   0  0  0  0  0  0  0  0  0  0  0  0
   -4.5801    1.1434    3.0361 H   0  0  0  0  0  0  0  0  0  0  0  0
   -6.6716    2.4132    3.4249 H   0  0  0  0  0  0  0  0  0  0  0  0
   -8.4114    1.5270    4.9656 H   0  0  0  0  0  0  0  0  0  0  0  0
   -9.0311    0.6069   10.0871 H   0  0  0  0  0  0  0  0  0  0  0  0
  -10.7398    0.6222    9.5598 H   0  0  0  0  0  0  0  0  0  0  0  0
  -11.8280   -2.0240   12.7926 H   0  0  0  0  0  0  0  0  0  0  0  0
  -13.1312   -0.1742   13.1354 H   0  0  0  0  0  0  0  0  0  0  0  0
  -11.5753    0.2884   13.6738 H   0  0  0  0  0  0  0  0  0  0  0  0
  -11.2517    1.5903   11.5149 H   0  0  0  0  0  0  0  0  0  0  0  0
  -12.7722    2.0037   12.2833 H   0  0  0  0  0  0  0  0  0  0  0  0
  -12.6495    1.0718    9.7127 H   0  0  0  0  0  0  0  0  0  0  0  0
  -13.9973    0.7771   10.7645 H   0  0  0  0  0  0  0  0  0  0  0  0
  -12.3532   -1.2714    9.7367 H   0  0  0  0  0  0  0  0  0  0  0  0
  -13.6530   -1.2289   10.9194 H   0  0  0  0  0  0  0  0  0  0  0  0
   -8.9016   -3.1552   12.9356 H   0  0  0  0  0  0  0  0  0  0  0  0
  -10.3252   -5.2774   12.7915 H   0  0  0  0  0  0  0  0  0  0  0  0
   -8.9610   -4.7057   11.8766 H   0  0  0  0  0  0  0  0  0  0  0  0
   -8.8547   -5.9902   14.4270 H   0  0  0  0  0  0  0  0  0  0  0  0
   -7.7732   -4.6438   13.9762 H   0  0  0  0  0  0  0  0  0  0  0  0
   -9.2749   -3.1117   14.8124 H   0  0  0  0  0  0  0  0  0  0  0  0
  -11.0077   -2.5770   14.8751 H   0  0  0  0  0  0  0  0  0  0  0  0
  1  2  2  0
  2  3  1  0
  3  4  1  0
  4  5  1  0
  5  6  1  0
  6  7  1  0
  7  8  2  0
  8  9  1  0
  9 10  2  0
 10 11  1  0
 11 12  2  0
  4 13  1  0
 13 14  2  0
 13 15  1  0
 15 16  1  0
 16 17  1  0
 17 18  2  0
 17 19  1  0
 19 20  1  0
 20 21  1  0
 21 22  1  0
 22 23  1  0
 23 24  1  0
 19 25  1  0
 25 26  1  0
 26 27  1  0
 27 28  1  0
 28 29  2  0
 28 30  2  0
 28 31  1  0
 15  2  1  0
 24 20  1  0
 31 25  1  0
 12  4  1  0
 12  7  1  0
  3 32  1  0
  5 33  1  0
  5 34  1  0
  6 35  1  0
  6 36  1  0
  8 37  1  0
  9 38  1  0
 10 39  1  0
 11 40  1  0
 16 41  1  0
 16 42  1  0
 20 43  1  0
 21 44  1  0
 21 45  1  0
 22 46  1  0
 22 47  1  0
 23 48  1  0
 23 49  1  0
 24 50  1  0
 24 51  1  0
 25 52  1  0
 26 53  1  0
 26 54  1  0
 27 55  1  0
 27 56  1  0
 31 57  1  0
 31 58  1  0
M  END
>  <Energy>  (631) 
446.77760094297992

>  <compound_id>  (631) 
46357

>  <target_id>  (631) 
1

>  <reference_id>  (631) 
30

>  <inspiration_ids>  (631) 
[51, 30]

>  <energy_score>  (631) 
412.7220145321984

>  <distance_score>  (631) 
2.5616007499835343

>  <path>  (631) 
/opt/xchem-fragalysis-2/maxwin/BulkDock/SCRATCH/511023/C46357-P30/C46357-P30.minimised.mol

>  <scratch_subdir>  (631) 
/opt/xchem-fragalysis-2/maxwin/BulkDock/SCRATCH/511023/C46357-P30

>  <fragmenstein_runtime>  (631) 
17.008415460586548

>  <fragmenstein_outcome>  (631) 
too moved

>  <fragmenstein_mode>  (631) 
expansion

>  <fragmenstein_error>  (631) 


$$$$
C46344-P51
     RDKit          3D

 52 56  0  0  0  0  0  0  0  0999 V2000
  -13.5083    0.7361    7.2010 O   0  0  0  0  0  0  0  0  0  0  0  0
  -13.3248   -0.3169    7.7491 C   0  0  0  0  0  0  0  0  0  0  0  0
  -11.9707   -0.5831    8.4410 C   0  0  0  0  0  0  0  0  0  0  0  0
  -10.8890   -0.9512    7.5687 N   0  0  0  0  0  0  0  0  0  0  0  0
  -10.8604   -2.1135    6.8635 C   0  0  0  0  0  0  0  0  0  0  0  0
  -11.7609   -2.9300    6.7885 O   0  0  0  0  0  0  0  0  0  0  0  0
   -9.6130   -2.2665    6.2984 N   0  0  0  0  0  0  0  0  0  0  0  0
   -8.7047   -1.2692    6.7735 C   0  0  0  0  0  0  0  0  0  0  0  0
   -7.4046   -1.8011    7.3834 C   0  0  0  0  0  0  0  0  0  0  0  0
   -6.3834   -0.6543    7.2682 C   0  0  0  0  0  0  0  0  0  0  0  0
   -6.8832    0.0774    6.0585 C   0  0  0  0  0  0  0  0  0  0  0  0
   -6.2474    1.0711    5.3371 C   0  0  0  0  0  0  0  0  0  0  0  0
   -6.9226    1.6546    4.2636 C   0  0  0  0  0  0  0  0  0  0  0  0
   -8.2218    1.2474    3.9302 C   0  0  0  0  0  0  0  0  0  0  0  0
   -8.8699    0.2631    4.6755 C   0  0  0  0  0  0  0  0  0  0  0  0
   -8.1922   -0.3091    5.7417 C   0  0  0  0  0  0  0  0  0  0  0  0
   -9.6005   -0.5517    7.7923 C   0  0  0  0  0  0  0  0  0  0  0  0
   -9.2207    0.2338    8.6521 O   0  0  0  0  0  0  0  0  0  0  0  0
  -14.2192   -1.4299    7.9815 N   0  0  0  0  0  0  0  0  0  0  0  0
  -15.5574   -1.5744    7.7284 C   0  0  0  0  0  0  0  0  0  0  0  0
  -16.4317   -0.6576    7.1987 C   0  0  0  0  0  0  0  0  0  0  0  0
  -17.7031   -1.1719    7.4704 C   0  0  0  0  0  0  0  0  0  0  0  0
  -17.6775   -2.3472    8.0981 N   0  0  0  0  0  0  0  0  0  0  0  0
  -16.3564   -2.7019    8.1439 N   0  0  0  0  0  0  0  0  0  0  0  0
  -15.7517   -4.5481    8.4160 C   0  0  0  0  0  0  0  0  0  0  0  0
  -15.0057   -6.4162    8.0002 C   0  0  0  0  0  0  0  0  0  0  0  0
  -16.2459   -7.4757    8.3408 C   0  0  0  0  0  0  0  0  0  0  0  0
  -17.9136   -6.5581    8.5745 C   0  0  0  0  0  0  0  0  0  0  0  0
  -17.7560   -4.7654    8.0291 C   0  0  0  0  0  0  0  0  0  0  0  0
  -11.7092    0.3467    8.9629 H   0  0  0  0  0  0  0  0  0  0  0  0
  -12.0735   -1.3267    9.2313 H   0  0  0  0  0  0  0  0  0  0  0  0
   -9.3867   -3.0913    5.7582 H   0  0  0  0  0  0  0  0  0  0  0  0
   -7.5249   -2.1249    8.4193 H   0  0  0  0  0  0  0  0  0  0  0  0
   -7.0413   -2.6656    6.8101 H   0  0  0  0  0  0  0  0  0  0  0  0
   -5.3684   -1.0389    7.1360 H   0  0  0  0  0  0  0  0  0  0  0  0
   -6.4205   -0.0011    8.1462 H   0  0  0  0  0  0  0  0  0  0  0  0
   -5.2460    1.3928    5.5856 H   0  0  0  0  0  0  0  0  0  0  0  0
   -6.4398    2.4314    3.6760 H   0  0  0  0  0  0  0  0  0  0  0  0
   -8.7346    1.7132    3.0921 H   0  0  0  0  0  0  0  0  0  0  0  0
   -9.8899   -0.0254    4.4364 H   0  0  0  0  0  0  0  0  0  0  0  0
  -13.7456   -2.1225    8.5504 H   0  0  0  0  0  0  0  0  0  0  0  0
  -16.1790    0.3008    6.7684 H   0  0  0  0  0  0  0  0  0  0  0  0
  -18.6612   -0.7167    7.2588 H   0  0  0  0  0  0  0  0  0  0  0  0
  -14.8269   -3.9868    7.9777 H   0  0  0  0  0  0  0  0  0  0  0  0
  -14.7330   -6.9816    7.0776 H   0  0  0  0  0  0  0  0  0  0  0  0
  -14.0005   -6.7211    8.3602 H   0  0  0  0  0  0  0  0  0  0  0  0
  -15.9854   -8.2312    7.5749 H   0  0  0  0  0  0  0  0  0  0  0  0
  -15.9055   -8.2854    8.9778 H   0  0  0  0  0  0  0  0  0  0  0  0
  -18.2470   -6.5932    9.6141 H   0  0  0  0  0  0  0  0  0  0  0  0
  -18.7436   -6.9736    7.9799 H   0  0  0  0  0  0  0  0  0  0  0  0
  -18.1090   -4.5136    7.0161 H   0  0  0  0  0  0  0  0  0  0  0  0
  -18.4594   -4.2731    8.7143 H   0  0  0  0  0  0  0  0  0  0  0  0
  1  2  2  0
  2  3  1  0
  3  4  1  0
  4  5  1  0
  5  6  2  0
  5  7  1  0
  7  8  1  0
  8  9  1  0
  9 10  1  0
 10 11  1  0
 11 12  2  0
 12 13  1  0
 13 14  2  0
 14 15  1  0
 15 16  2  0
  8 17  1  0
 17 18  2  0
  2 19  1  0
 19 20  1  0
 20 21  2  0
 21 22  1  0
 22 23  2  0
 23 24  1  0
 24 25  1  0
 25 26  1  0
 26 27  1  0
 27 28  1  0
 28 29  1  0
 17  4  1  0
 24 20  1  0
 29 25  1  0
 16  8  1  0
 16 11  1  0
  3 30  1  0
  3 31  1  0
  7 32  1  0
  9 33  1  0
  9 34  1  0
 10 35  1  0
 10 36  1  0
 12 37  1  0
 13 38  1  0
 14 39  1  0
 15 40  1  0
 19 41  1  0
 21 42  1  0
 22 43  1  0
 25 44  1  0
 26 45  1  0
 26 46  1  0
 27 47  1  0
 27 48  1  0
 28 49  1  0
 28 50  1  0
 29 51  1  0
 29 52  1  0
M  END
>  <Energy>  (632) 
425.71986529799835

>  <compound_id>  (632) 
46344

>  <target_id>  (632) 
1

>  <reference_id>  (632) 
51

>  <inspiration_ids>  (632) 
[51, 30]

>  <energy_score>  (632) 
364.9987447768112

>  <distance_score>  (632) 
1.9116466130276366

>  <path>  (632) 
/opt/xchem-fragalysis-2/maxwin/BulkDock/SCRATCH/511023/C46344-P51/C46344-P51.minimised.mol

>  <scratch_subdir>  (632) 
/opt/xchem-fragalysis-2/maxwin/BulkDock/SCRATCH/511023/C46344-P51

>  <fragmenstein_runtime>  (632) 
9.783496379852295

>  <fragmenstein_outcome>  (632) 
too moved

>  <fragmenstein_mode>  (632) 
expansion

>  <fragmenstein_error>  (632) 


$$$$
C46344-P30
     RDKit          3D

 52 56  0  0  0  0  0  0  0  0999 V2000
  -15.2663    0.4712    6.9446 O   0  0  0  0  0  0  0  0  0  0  0  0
  -14.5974   -0.4493    7.3324 C   0  0  0  0  0  0  0  0  0  0  0  0
  -13.1046   -0.1622    7.6847 C   0  0  0  0  0  0  0  0  0  0  0  0
  -12.0350   -1.0346    7.2235 N   0  0  0  0  0  0  0  0  0  0  0  0
  -11.8252   -1.2287    5.8907 C   0  0  0  0  0  0  0  0  0  0  0  0
  -12.5555   -0.8845    4.9782 O   0  0  0  0  0  0  0  0  0  0  0  0
  -10.5689   -1.7477    5.6906 N   0  0  0  0  0  0  0  0  0  0  0  0
   -9.7339   -1.4728    6.8170 C   0  0  0  0  0  0  0  0  0  0  0  0
   -8.8368   -2.6451    7.2191 C   0  0  0  0  0  0  0  0  0  0  0  0
   -7.5272   -2.4890    6.4250 C   0  0  0  0  0  0  0  0  0  0  0  0
   -7.4638   -1.0073    6.2179 C   0  0  0  0  0  0  0  0  0  0  0  0
   -6.3908   -0.2574    5.7640 C   0  0  0  0  0  0  0  0  0  0  0  0
   -6.5808    1.1093    5.5479 C   0  0  0  0  0  0  0  0  0  0  0  0
   -7.8236    1.7069    5.7990 C   0  0  0  0  0  0  0  0  0  0  0  0
   -8.9009    0.9427    6.2507 C   0  0  0  0  0  0  0  0  0  0  0  0
   -8.7127   -0.4177    6.4546 C   0  0  0  0  0  0  0  0  0  0  0  0
  -10.7950   -1.0240    7.8399 C   0  0  0  0  0  0  0  0  0  0  0  0
  -10.5620   -0.5916    8.9635 O   0  0  0  0  0  0  0  0  0  0  0  0
  -14.9565   -1.8133    7.6334 N   0  0  0  0  0  0  0  0  0  0  0  0
  -16.1995   -2.4496    7.6542 C   0  0  0  0  0  0  0  0  0  0  0  0
  -17.4007   -1.8740    7.3175 C   0  0  0  0  0  0  0  0  0  0  0  0
  -18.3591   -2.8652    7.4595 C   0  0  0  0  0  0  0  0  0  0  0  0
  -17.8735   -4.0249    7.8884 N   0  0  0  0  0  0  0  0  0  0  0  0
  -16.4412   -3.8973    7.9228 N   0  0  0  0  0  0  0  0  0  0  0  0
  -15.3725   -5.5014    8.4746 C   0  0  0  0  0  0  0  0  0  0  0  0
  -14.5673   -7.0147    7.5888 C   0  0  0  0  0  0  0  0  0  0  0  0
  -15.1370   -8.4044    7.6246 C   0  0  0  0  0  0  0  0  0  0  0  0
  -16.3785   -7.8696    7.0898 C   0  0  0  0  0  0  0  0  0  0  0  0
  -16.7715   -6.6273    8.0438 C   0  0  0  0  0  0  0  0  0  0  0  0
  -12.8729    0.8411    7.3019 H   0  0  0  0  0  0  0  0  0  0  0  0
  -13.0530   -0.0994    8.7790 H   0  0  0  0  0  0  0  0  0  0  0  0
  -10.2400   -1.7828    4.7365 H   0  0  0  0  0  0  0  0  0  0  0  0
   -8.6109   -2.5843    8.2867 H   0  0  0  0  0  0  0  0  0  0  0  0
   -9.2958   -3.6238    7.0435 H   0  0  0  0  0  0  0  0  0  0  0  0
   -7.5954   -2.9982    5.4577 H   0  0  0  0  0  0  0  0  0  0  0  0
   -6.6671   -2.8686    6.9812 H   0  0  0  0  0  0  0  0  0  0  0  0
   -5.4323   -0.7234    5.5563 H   0  0  0  0  0  0  0  0  0  0  0  0
   -5.7678    1.7158    5.1582 H   0  0  0  0  0  0  0  0  0  0  0  0
   -7.9576    2.7714    5.6207 H   0  0  0  0  0  0  0  0  0  0  0  0
   -9.8679    1.4101    6.4124 H   0  0  0  0  0  0  0  0  0  0  0  0
  -14.1461   -2.2922    8.0188 H   0  0  0  0  0  0  0  0  0  0  0  0
  -17.5496   -0.8494    7.0052 H   0  0  0  0  0  0  0  0  0  0  0  0
  -19.4243   -2.7828    7.2876 H   0  0  0  0  0  0  0  0  0  0  0  0
  -14.6640   -4.7769    8.1648 H   0  0  0  0  0  0  0  0  0  0  0  0
  -14.5028   -6.9979    6.5237 H   0  0  0  0  0  0  0  0  0  0  0  0
  -13.6414   -7.2478    8.0877 H   0  0  0  0  0  0  0  0  0  0  0  0
  -15.0605   -8.8987    8.5852 H   0  0  0  0  0  0  0  0  0  0  0  0
  -14.6029   -9.0641    6.9268 H   0  0  0  0  0  0  0  0  0  0  0  0
  -17.3720   -8.0167    6.6318 H   0  0  0  0  0  0  0  0  0  0  0  0
  -16.0603   -8.0656    6.0213 H   0  0  0  0  0  0  0  0  0  0  0  0
  -17.7012   -6.1787    7.6680 H   0  0  0  0  0  0  0  0  0  0  0  0
  -17.1654   -6.9293    9.0000 H   0  0  0  0  0  0  0  0  0  0  0  0
  1  2  2  0
  2  3  1  0
  3  4  1  0
  4  5  1  0
  5  6  2  0
  5  7  1  0
  7  8  1  0
  8  9  1  0
  9 10  1  0
 10 11  1  0
 11 12  2  0
 12 13  1  0
 13 14  2  0
 14 15  1  0
 15 16  2  0
  8 17  1  0
 17 18  2  0
  2 19  1  0
 19 20  1  0
 20 21  2  0
 21 22  1  0
 22 23  2  0
 23 24  1  0
 24 25  1  0
 25 26  1  0
 26 27  1  0
 27 28  1  0
 28 29  1  0
 17  4  1  0
 24 20  1  0
 29 25  1  0
 16  8  1  0
 16 11  1  0
  3 30  1  0
  3 31  1  0
  7 32  1  0
  9 33  1  0
  9 34  1  0
 10 35  1  0
 10 36  1  0
 12 37  1  0
 13 38  1  0
 14 39  1  0
 15 40  1  0
 19 41  1  0
 21 42  1  0
 22 43  1  0
 25 44  1  0
 26 45  1  0
 26 46  1  0
 27 47  1  0
 27 48  1  0
 28 49  1  0
 28 50  1  0
 29 51  1  0
 29 52  1  0
M  END
>  <Energy>  (633) 
325.54209450994819

>  <compound_id>  (633) 
46344

>  <target_id>  (633) 
1

>  <reference_id>  (633) 
30

>  <inspiration_ids>  (633) 
[51, 30]

>  <energy_score>  (633) 
264.82097398876164

>  <distance_score>  (633) 
2.745114336102118

>  <path>  (633) 
/opt/xchem-fragalysis-2/maxwin/BulkDock/SCRATCH/511023/C46344-P30/C46344-P30.minimised.mol

>  <scratch_subdir>  (633) 
/opt/xchem-fragalysis-2/maxwin/BulkDock/SCRATCH/511023/C46344-P30

>  <fragmenstein_runtime>  (633) 
12.848872184753418

>  <fragmenstein_outcome>  (633) 
too moved

>  <fragmenstein_mode>  (633) 
expansion

>  <fragmenstein_error>  (633) 


$$$$
C46357-P51
     RDKit          3D

 58 62  0  0  0  0  0  0  0  0999 V2000
  -13.7156   -1.0656    9.5052 O   0  0  0  0  0  0  0  0  0  0  0  0
  -12.6454   -0.9442    8.9421 C   0  0  0  0  0  0  0  0  0  0  0  0
  -12.4972   -0.9481    7.5550 N   0  0  0  0  0  0  0  0  0  0  0  0
  -11.1243   -0.7375    7.2048 C   0  0  0  0  0  0  0  0  0  0  0  0
  -10.3777   -2.0764    6.9994 C   0  0  0  0  0  0  0  0  0  0  0  0
   -9.3454   -1.9015    5.8748 C   0  0  0  0  0  0  0  0  0  0  0  0
   -9.7064   -0.5783    5.2878 C   0  0  0  0  0  0  0  0  0  0  0  0
   -9.0749    0.0405    4.2186 C   0  0  0  0  0  0  0  0  0  0  0  0
   -9.5265    1.2968    3.8208 C   0  0  0  0  0  0  0  0  0  0  0  0
  -10.5993    1.9076    4.4854 C   0  0  0  0  0  0  0  0  0  0  0  0
  -11.2242    1.2786    5.5667 C   0  0  0  0  0  0  0  0  0  0  0  0
  -10.7651    0.0352    5.9736 C   0  0  0  0  0  0  0  0  0  0  0  0
  -10.8585    0.0268    8.5115 C   0  0  0  0  0  0  0  0  0  0  0  0
  -10.3615    1.1410    8.6044 O   0  0  0  0  0  0  0  0  0  0  0  0
  -11.4765   -0.6107    9.5271 N   0  0  0  0  0  0  0  0  0  0  0  0
  -11.1946   -0.4574   10.9953 C   0  0  0  0  0  0  0  0  0  0  0  0
  -10.1633   -1.6895   11.4258 C   0  0  0  0  0  0  0  0  0  0  0  0
  -10.4374   -2.6326   10.8632 O   0  0  0  0  0  0  0  0  0  0  0  0
   -9.1941   -1.5288   12.4256 N   0  0  0  0  0  0  0  0  0  0  0  0
   -7.4922   -0.9507   11.5539 C   0  0  0  0  0  0  0  0  0  0  0  0
   -6.9509   -1.1135    9.7017 C   0  0  0  0  0  0  0  0  0  0  0  0
   -7.5922   -0.4144    8.5398 C   0  0  0  0  0  0  0  0  0  0  0  0
   -7.6859    0.8926    9.1692 C   0  0  0  0  0  0  0  0  0  0  0  0
   -8.2701    0.4277   10.5016 C   0  0  0  0  0  0  0  0  0  0  0  0
   -8.0286   -2.9542   13.4247 C   0  0  0  0  0  0  0  0  0  0  0  0
   -8.4606   -4.6624   13.0179 C   0  0  0  0  0  0  0  0  0  0  0  0
   -9.5345   -5.3601   13.7583 C   0  0  0  0  0  0  0  0  0  0  0  0
   -9.2091   -5.2571   15.3460 S   0  0  0  0  0  0  0  0  0  0  0  0
   -7.9674   -5.9196   15.6210 O   0  0  0  0  0  0  0  0  0  0  0  0
  -10.3586   -5.5795   16.1540 O   0  0  0  0  0  0  0  0  0  0  0  0
   -9.1877   -3.6089   14.8908 C   0  0  0  0  0  0  0  0  0  0  0  0
  -13.2092   -1.3476    6.9598 H   0  0  0  0  0  0  0  0  0  0  0  0
   -9.8732   -2.4396    7.8959 H   0  0  0  0  0  0  0  0  0  0  0  0
  -11.0836   -2.8625    6.6975 H   0  0  0  0  0  0  0  0  0  0  0  0
   -9.4402   -2.7025    5.1344 H   0  0  0  0  0  0  0  0  0  0  0  0
   -8.3224   -1.8959    6.2583 H   0  0  0  0  0  0  0  0  0  0  0  0
   -8.2458   -0.4369    3.7050 H   0  0  0  0  0  0  0  0  0  0  0  0
   -9.0472    1.8052    2.9885 H   0  0  0  0  0  0  0  0  0  0  0  0
  -10.9381    2.8909    4.1689 H   0  0  0  0  0  0  0  0  0  0  0  0
  -12.0202    1.7813    6.1087 H   0  0  0  0  0  0  0  0  0  0  0  0
  -10.8698    0.5688   11.1596 H   0  0  0  0  0  0  0  0  0  0  0  0
  -12.1216   -0.6207   11.5546 H   0  0  0  0  0  0  0  0  0  0  0  0
   -6.6793   -0.4509   12.1383 H   0  0  0  0  0  0  0  0  0  0  0  0
   -5.9324   -0.6911    9.6211 H   0  0  0  0  0  0  0  0  0  0  0  0
   -6.9621   -2.1232    9.3349 H   0  0  0  0  0  0  0  0  0  0  0  0
   -8.5405   -0.8663    8.2982 H   0  0  0  0  0  0  0  0  0  0  0  0
   -6.9648   -0.4138    7.6430 H   0  0  0  0  0  0  0  0  0  0  0  0
   -6.7100    1.3449    9.1728 H   0  0  0  0  0  0  0  0  0  0  0  0
   -8.2968    1.6029    8.6166 H   0  0  0  0  0  0  0  0  0  0  0  0
   -9.1501   -0.0946   10.1919 H   0  0  0  0  0  0  0  0  0  0  0  0
   -8.6815    1.3167   10.9789 H   0  0  0  0  0  0  0  0  0  0  0  0
   -7.3249   -2.5690   14.2060 H   0  0  0  0  0  0  0  0  0  0  0  0
   -7.5554   -5.2315   12.9766 H   0  0  0  0  0  0  0  0  0  0  0  0
   -8.8921   -4.7539   12.0268 H   0  0  0  0  0  0  0  0  0  0  0  0
  -10.4125   -4.9706   13.3396 H   0  0  0  0  0  0  0  0  0  0  0  0
   -9.8012   -6.3809   13.9311 H   0  0  0  0  0  0  0  0  0  0  0  0
   -9.0551   -3.0407   15.8019 H   0  0  0  0  0  0  0  0  0  0  0  0
  -10.2080   -3.4044   14.5903 H   0  0  0  0  0  0  0  0  0  0  0  0
  1  2  2  0
  2  3  1  0
  3  4  1  0
  4  5  1  0
  5  6  1  0
  6  7  1  0
  7  8  2  0
  8  9  1  0
  9 10  2  0
 10 11  1  0
 11 12  2  0
  4 13  1  0
 13 14  2  0
 13 15  1  0
 15 16  1  0
 16 17  1  0
 17 18  2  0
 17 19  1  0
 19 20  1  0
 20 21  1  0
 21 22  1  0
 22 23  1  0
 23 24  1  0
 19 25  1  0
 25 26  1  0
 26 27  1  0
 27 28  1  0
 28 29  2  0
 28 30  2  0
 28 31  1  0
 15  2  1  0
 24 20  1  0
 31 25  1  0
 12  4  1  0
 12  7  1  0
  3 32  1  0
  5 33  1  0
  5 34  1  0
  6 35  1  0
  6 36  1  0
  8 37  1  0
  9 38  1  0
 10 39  1  0
 11 40  1  0
 16 41  1  0
 16 42  1  0
 20 43  1  0
 21 44  1  0
 21 45  1  0
 22 46  1  0
 22 47  1  0
 23 48  1  0
 23 49  1  0
 24 50  1  0
 24 51  1  0
 25 52  1  0
 26 53  1  0
 26 54  1  0
 27 55  1  0
 27 56  1  0
 31 57  1  0
 31 58  1  0
M  END
>  <Energy>  (634) 
527.37007685602646

>  <compound_id>  (634) 
46357

>  <target_id>  (634) 
1

>  <reference_id>  (634) 
51

>  <inspiration_ids>  (634) 
[51, 30]

>  <energy_score>  (634) 
493.3144904452332

>  <distance_score>  (634) 
4.272536647162219

>  <path>  (634) 
/opt/xchem-fragalysis-2/maxwin/BulkDock/SCRATCH/511023/C46357-P51/C46357-P51.minimised.mol

>  <scratch_subdir>  (634) 
/opt/xchem-fragalysis-2/maxwin/BulkDock/SCRATCH/511023/C46357-P51

>  <fragmenstein_runtime>  (634) 
13.627795219421387

>  <fragmenstein_outcome>  (634) 
too moved

>  <fragmenstein_mode>  (634) 
expansion

>  <fragmenstein_error>  (634) 


$$$$
C46357-P30
     RDKit          3D

 58 62  0  0  0  0  0  0  0  0999 V2000
  -11.4813   -0.5696    7.2435 O   0  0  0  0  0  0  0  0  0  0  0  0
  -10.2643   -0.5126    7.1876 C   0  0  0  0  0  0  0  0  0  0  0  0
   -9.5334   -0.9105    6.0914 N   0  0  0  0  0  0  0  0  0  0  0  0
   -8.1364   -0.9685    6.4021 C   0  0  0  0  0  0  0  0  0  0  0  0
   -7.5450   -2.3872    6.3797 C   0  0  0  0  0  0  0  0  0  0  0  0
   -6.0560   -2.2142    6.0298 C   0  0  0  0  0  0  0  0  0  0  0  0
   -6.0863   -0.9647    5.2006 C   0  0  0  0  0  0  0  0  0  0  0  0
   -5.1105   -0.4805    4.3488 C   0  0  0  0  0  0  0  0  0  0  0  0
   -5.3332    0.7426    3.7103 C   0  0  0  0  0  0  0  0  0  0  0  0
   -6.5165    1.4634    3.9312 C   0  0  0  0  0  0  0  0  0  0  0  0
   -7.4945    0.9706    4.7936 C   0  0  0  0  0  0  0  0  0  0  0  0
   -7.2671   -0.2456    5.4206 C   0  0  0  0  0  0  0  0  0  0  0  0
   -8.1151   -0.3614    7.8076 C   0  0  0  0  0  0  0  0  0  0  0  0
   -7.1220   -0.1857    8.5042 O   0  0  0  0  0  0  0  0  0  0  0  0
   -9.4081   -0.0889    8.1658 N   0  0  0  0  0  0  0  0  0  0  0  0
   -9.8185    0.0706    9.5592 C   0  0  0  0  0  0  0  0  0  0  0  0
   -9.9551   -1.3742   10.1173 C   0  0  0  0  0  0  0  0  0  0  0  0
   -9.8280   -2.2430    9.2976 O   0  0  0  0  0  0  0  0  0  0  0  0
  -10.1271   -1.4557   11.6439 N   0  0  0  0  0  0  0  0  0  0  0  0
  -11.5806   -1.4873   11.9741 C   0  0  0  0  0  0  0  0  0  0  0  0
  -12.1093   -0.0059   12.7756 C   0  0  0  0  0  0  0  0  0  0  0  0
  -12.2082    1.1808   11.8316 C   0  0  0  0  0  0  0  0  0  0  0  0
  -12.9163    0.6057   10.6640 C   0  0  0  0  0  0  0  0  0  0  0  0
  -12.6219   -0.8914   10.7268 C   0  0  0  0  0  0  0  0  0  0  0  0
  -10.0312   -3.0423   12.8898 C   0  0  0  0  0  0  0  0  0  0  0  0
   -9.5378   -4.5673   12.7760 C   0  0  0  0  0  0  0  0  0  0  0  0
   -8.8007   -4.9600   14.1183 C   0  0  0  0  0  0  0  0  0  0  0  0
   -9.7636   -4.3609   15.6524 S   0  0  0  0  0  0  0  0  0  0  0  0
  -10.4079   -5.5326   16.1658 O   0  0  0  0  0  0  0  0  0  0  0  0
   -9.9093   -3.1758   16.4989 O   0  0  0  0  0  0  0  0  0  0  0  0
  -10.2945   -3.3015   14.4526 C   0  0  0  0  0  0  0  0  0  0  0  0
   -9.9982   -1.4703    5.3869 H   0  0  0  0  0  0  0  0  0  0  0  0
   -7.6827   -2.9336    7.3177 H   0  0  0  0  0  0  0  0  0  0  0  0
   -8.0263   -2.9831    5.5907 H   0  0  0  0  0  0  0  0  0  0  0  0
   -5.6769   -3.0752    5.4722 H   0  0  0  0  0  0  0  0  0  0  0  0
   -5.4513   -2.0546    6.9284 H   0  0  0  0  0  0  0  0  0  0  0  0
   -4.1894   -1.0307    4.1868 H   0  0  0  0  0  0  0  0  0  0  0  0
   -4.5801    1.1434    3.0361 H   0  0  0  0  0  0  0  0  0  0  0  0
   -6.6716    2.4132    3.4249 H   0  0  0  0  0  0  0  0  0  0  0  0
   -8.4114    1.5270    4.9656 H   0  0  0  0  0  0  0  0  0  0  0  0
   -9.0311    0.6069   10.0871 H   0  0  0  0  0  0  0  0  0  0  0  0
  -10.7398    0.6222    9.5598 H   0  0  0  0  0  0  0  0  0  0  0  0
  -11.8280   -2.0240   12.7926 H   0  0  0  0  0  0  0  0  0  0  0  0
  -13.1312   -0.1742   13.1354 H   0  0  0  0  0  0  0  0  0  0  0  0
  -11.5753    0.2884   13.6738 H   0  0  0  0  0  0  0  0  0  0  0  0
  -11.2517    1.5903   11.5149 H   0  0  0  0  0  0  0  0  0  0  0  0
  -12.7722    2.0037   12.2833 H   0  0  0  0  0  0  0  0  0  0  0  0
  -12.6495    1.0718    9.7127 H   0  0  0  0  0  0  0  0  0  0  0  0
  -13.9973    0.7771   10.7645 H   0  0  0  0  0  0  0  0  0  0  0  0
  -12.3532   -1.2714    9.7367 H   0  0  0  0  0  0  0  0  0  0  0  0
  -13.6530   -1.2289   10.9194 H   0  0  0  0  0  0  0  0  0  0  0  0
   -8.9016   -3.1552   12.9356 H   0  0  0  0  0  0  0  0  0  0  0  0
  -10.3252   -5.2774   12.7915 H   0  0  0  0  0  0  0  0  0  0  0  0
   -8.9610   -4.7057   11.8766 H   0  0  0  0  0  0  0  0  0  0  0  0
   -8.8547   -5.9902   14.4270 H   0  0  0  0  0  0  0  0  0  0  0  0
   -7.7732   -4.6438   13.9762 H   0  0  0  0  0  0  0  0  0  0  0  0
   -9.2749   -3.1117   14.8124 H   0  0  0  0  0  0  0  0  0  0  0  0
  -11.0077   -2.5770   14.8751 H   0  0  0  0  0  0  0  0  0  0  0  0
  1  2  2  0
  2  3  1  0
  3  4  1  0
  4  5  1  0
  5  6  1  0
  6  7  1  0
  7  8  2  0
  8  9  1  0
  9 10  2  0
 10 11  1  0
 11 12  2  0
  4 13  1  0
 13 14  2  0
 13 15  1  0
 15 16  1  0
 16 17  1  0
 17 18  2  0
 17 19  1  0
 19 20  1  0
 20 21  1  0
 21 22  1  0
 22 23  1  0
 23 24  1  0
 19 25  1  0
 25 26  1  0
 26 27  1  0
 27 28  1  0
 28 29  2  0
 28 30  2  0
 28 31  1  0
 15  2  1  0
 24 20  1  0
 31 25  1  0
 12  4  1  0
 12  7  1  0
  3 32  1  0
  5 33  1  0
  5 34  1  0
  6 35  1  0
  6 36  1  0
  8 37  1  0
  9 38  1  0
 10 39  1  0
 11 40  1  0
 16 41  1  0
 16 42  1  0
 20 43  1  0
 21 44  1  0
 21 45  1  0
 22 46  1  0
 22 47  1  0
 23 48  1  0
 23 49  1  0
 24 50  1  0
 24 51  1  0
 25 52  1  0
 26 53  1  0
 26 54  1  0
 27 55  1  0
 27 56  1  0
 31 57  1  0
 31 58  1  0
M  END
>  <Energy>  (635) 
446.77760094297992

>  <compound_id>  (635) 
46357

>  <target_id>  (635) 
1

>  <reference_id>  (635) 
30

>  <inspiration_ids>  (635) 
[51, 30]

>  <energy_score>  (635) 
412.7220145321984

>  <distance_score>  (635) 
2.5616007499835343

>  <path>  (635) 
/opt/xchem-fragalysis-2/maxwin/BulkDock/SCRATCH/511023/C46357-P30/C46357-P30.minimised.mol

>  <scratch_subdir>  (635) 
/opt/xchem-fragalysis-2/maxwin/BulkDock/SCRATCH/511023/C46357-P30

>  <fragmenstein_runtime>  (635) 
16.87136697769165

>  <fragmenstein_outcome>  (635) 
too moved

>  <fragmenstein_mode>  (635) 
expansion

>  <fragmenstein_error>  (635) 


$$$$
C46362-P51
     RDKit          2D

  0  0  0  0  0  0  0  0  0  0999 V2000
M  END
>  <compound_id>  (636) 
46362

>  <target_id>  (636) 
1

>  <reference_id>  (636) 
51

>  <inspiration_ids>  (636) 
[51, 30]

>  <energy_score>  (636) 
nan

>  <distance_score>  (636) 
nan

>  <path>  (636) 
/opt/xchem-fragalysis-2/maxwin/BulkDock/SCRATCH/511023/C46362-P51/C46362-P51.minimised.mol

>  <scratch_subdir>  (636) 
/opt/xchem-fragalysis-2/maxwin/BulkDock/SCRATCH/511023/C46362-P51

>  <fragmenstein_runtime>  (636) 
1.7343254089355469

>  <fragmenstein_outcome>  (636) 
too distant

>  <fragmenstein_mode>  (636) 
expansion

>  <fragmenstein_error>  (636) 
DistanceError: hit1

$$$$
C46345-P51
     RDKit          3D

 56 60  0  0  0  0  0  0  0  0999 V2000
  -11.2682  -16.4724   13.6449 O   0  0  0  0  0  0  0  0  0  0  0  0
  -10.4883  -16.3334   12.7930 C   0  0  0  0  0  0  0  0  0  0  0  0
  -10.2026  -14.2330   12.4103 C   0  0  0  0  0  0  0  0  0  0  0  0
   -9.7747  -12.2879   11.9207 N   0  0  0  0  0  0  0  0  0  0  0  0
  -10.3167  -11.8469   10.6197 C   0  0  0  0  0  0  0  0  0  0  0  0
  -10.3665  -12.5880    9.6617 O   0  0  0  0  0  0  0  0  0  0  0  0
  -10.3180   -9.9859   10.4333 N   0  0  0  0  0  0  0  0  0  0  0  0
   -8.7751   -9.0797   11.0699 C   0  0  0  0  0  0  0  0  0  0  0  0
   -7.0135   -8.5026   10.2593 C   0  0  0  0  0  0  0  0  0  0  0  0
   -7.0987   -8.6241    8.3665 C   0  0  0  0  0  0  0  0  0  0  0  0
   -8.7594   -8.1298    8.1889 C   0  0  0  0  0  0  0  0  0  0  0  0
   -9.2409   -6.4603    7.3565 C   0  0  0  0  0  0  0  0  0  0  0  0
   -8.5804   -5.1792    7.3729 C   0  0  0  0  0  0  0  0  0  0  0  0
   -7.5400   -5.1345    8.3034 C   0  0  0  0  0  0  0  0  0  0  0  0
   -7.0909   -6.4793    9.3177 C   0  0  0  0  0  0  0  0  0  0  0  0
   -7.8842   -8.2135    9.4334 C   0  0  0  0  0  0  0  0  0  0  0  0
   -9.1444  -10.6499   12.4298 C   0  0  0  0  0  0  0  0  0  0  0  0
   -8.9118  -10.4756   13.6391 O   0  0  0  0  0  0  0  0  0  0  0  0
   -9.8025  -17.9444   11.8826 N   0  0  0  0  0  0  0  0  0  0  0  0
  -10.6597  -18.7665   10.1779 C   0  0  0  0  0  0  0  0  0  0  0  0
  -10.1759  -20.0441    8.9188 C   0  0  0  0  0  0  0  0  0  0  0  0
   -9.3094  -20.0026    7.8321 C   0  0  0  0  0  0  0  0  0  0  0  0
   -9.5334  -21.1387    7.0197 C   0  0  0  0  0  0  0  0  0  0  0  0
  -10.5902  -21.7946    7.5881 C   0  0  0  0  0  0  0  0  0  0  0  0
  -11.0432  -21.1064    8.6622 O   0  0  0  0  0  0  0  0  0  0  0  0
  -10.0381  -19.5757   12.1851 C   0  0  0  0  0  0  0  0  0  0  0  0
  -10.6815  -20.4079   13.0349 C   0  0  0  0  0  0  0  0  0  0  0  0
  -10.5732  -21.9478   13.0957 C   0  0  0  0  0  0  0  0  0  0  0  0
  -10.1390  -22.6834   11.8845 C   0  0  0  0  0  0  0  0  0  0  0  0
   -8.9631  -21.9943   11.3567 C   0  0  0  0  0  0  0  0  0  0  0  0
   -8.8912  -20.4613   11.4635 C   0  0  0  0  0  0  0  0  0  0  0  0
  -11.2715  -14.0429   12.3436 H   0  0  0  0  0  0  0  0  0  0  0  0
   -9.9192  -14.0176   13.4566 H   0  0  0  0  0  0  0  0  0  0  0  0
  -10.6142   -9.6242    9.5425 H   0  0  0  0  0  0  0  0  0  0  0  0
   -6.4215   -7.8141   10.9539 H   0  0  0  0  0  0  0  0  0  0  0  0
   -5.9138   -8.8922   10.3976 H   0  0  0  0  0  0  0  0  0  0  0  0
   -6.6265   -8.0953    7.6241 H   0  0  0  0  0  0  0  0  0  0  0  0
   -6.6851   -9.5796    7.9873 H   0  0  0  0  0  0  0  0  0  0  0  0
   -9.9285   -6.5720    6.4952 H   0  0  0  0  0  0  0  0  0  0  0  0
   -8.8188   -4.3870    6.6784 H   0  0  0  0  0  0  0  0  0  0  0  0
   -6.8737   -4.3114    8.1017 H   0  0  0  0  0  0  0  0  0  0  0  0
   -6.2234   -6.2028    9.9411 H   0  0  0  0  0  0  0  0  0  0  0  0
  -10.4048  -18.4236    9.1625 H   0  0  0  0  0  0  0  0  0  0  0  0
  -11.6524  -18.2921    9.8486 H   0  0  0  0  0  0  0  0  0  0  0  0
   -8.5878  -19.2288    7.6522 H   0  0  0  0  0  0  0  0  0  0  0  0
   -9.0115  -21.4249    6.1175 H   0  0  0  0  0  0  0  0  0  0  0  0
  -11.1408  -22.6914    7.3381 H   0  0  0  0  0  0  0  0  0  0  0  0
  -11.3406  -19.8827   13.6615 H   0  0  0  0  0  0  0  0  0  0  0  0
  -11.5243  -22.4498   13.1714 H   0  0  0  0  0  0  0  0  0  0  0  0
   -9.9617  -22.2409   13.9573 H   0  0  0  0  0  0  0  0  0  0  0  0
  -10.9231  -22.7362   11.1243 H   0  0  0  0  0  0  0  0  0  0  0  0
   -9.9080  -23.7295   12.1239 H   0  0  0  0  0  0  0  0  0  0  0  0
   -8.9639  -22.2802   10.3087 H   0  0  0  0  0  0  0  0  0  0  0  0
   -8.1105  -22.4411   11.8705 H   0  0  0  0  0  0  0  0  0  0  0  0
   -7.9296  -20.1950   11.9060 H   0  0  0  0  0  0  0  0  0  0  0  0
   -8.6891  -20.1334   10.4708 H   0  0  0  0  0  0  0  0  0  0  0  0
  1  2  2  0
  2  3  1  0
  3  4  1  0
  4  5  1  0
  5  6  2  0
  5  7  1  0
  7  8  1  0
  8  9  1  0
  9 10  1  0
 10 11  1  0
 11 12  2  0
 12 13  1  0
 13 14  2  0
 14 15  1  0
 15 16  2  0
  8 17  1  0
 17 18  2  0
  2 19  1  0
 19 20  1  0
 20 21  1  0
 21 22  2  0
 22 23  1  0
 23 24  2  0
 24 25  1  0
 19 26  1  0
 26 27  2  0
 27 28  1  0
 28 29  1  0
 29 30  1  0
 30 31  1  0
 17  4  1  0
 25 21  1  0
 31 26  1  0
 16  8  1  0
 16 11  1  0
  3 32  1  0
  3 33  1  0
  7 34  1  0
  9 35  1  0
  9 36  1  0
 10 37  1  0
 10 38  1  0
 12 39  1  0
 13 40  1  0
 14 41  1  0
 15 42  1  0
 20 43  1  0
 20 44  1  0
 22 45  1  0
 23 46  1  0
 24 47  1  0
 27 48  1  0
 28 49  1  0
 28 50  1  0
 29 51  1  0
 29 52  1  0
 30 53  1  0
 30 54  1  0
 31 55  1  0
 31 56  1  0
M  END
>  <Energy>  (637) 
1825.6156190002207

>  <compound_id>  (637) 
46345

>  <target_id>  (637) 
1

>  <reference_id>  (637) 
51

>  <inspiration_ids>  (637) 
[51, 30]

>  <energy_score>  (637) 
1752.338864700263

>  <distance_score>  (637) 
7.828325680756863

>  <path>  (637) 
/opt/xchem-fragalysis-2/maxwin/BulkDock/SCRATCH/511023/C46345-P51/C46345-P51.minimised.mol

>  <scratch_subdir>  (637) 
/opt/xchem-fragalysis-2/maxwin/BulkDock/SCRATCH/511023/C46345-P51

>  <fragmenstein_runtime>  (637) 
18.743709325790405

>  <fragmenstein_outcome>  (637) 
too moved

>  <fragmenstein_mode>  (637) 
expansion

>  <fragmenstein_error>  (637) 


$$$$
C46345-P30
     RDKit          3D

 56 60  0  0  0  0  0  0  0  0999 V2000
  -10.5337  -18.4952   15.3309 O   0  0  0  0  0  0  0  0  0  0  0  0
  -10.6376  -18.4678   14.1134 C   0  0  0  0  0  0  0  0  0  0  0  0
  -10.7267  -16.4703   13.4504 C   0  0  0  0  0  0  0  0  0  0  0  0
   -9.9793  -14.6335   13.4146 N   0  0  0  0  0  0  0  0  0  0  0  0
   -9.9550  -13.7337   12.3716 C   0  0  0  0  0  0  0  0  0  0  0  0
  -10.7725  -13.4663   11.5133 O   0  0  0  0  0  0  0  0  0  0  0  0
   -8.7366  -12.8583   12.2622 N   0  0  0  0  0  0  0  0  0  0  0  0
   -8.3080  -12.0704   13.4433 C   0  0  0  0  0  0  0  0  0  0  0  0
   -9.4890  -11.3043   13.7122 C   0  0  0  0  0  0  0  0  0  0  0  0
   -9.8020   -9.8789   13.3855 C   0  0  0  0  0  0  0  0  0  0  0  0
   -8.5921   -9.5002   12.7966 C   0  0  0  0  0  0  0  0  0  0  0  0
   -8.3850   -8.8241   11.2257 C   0  0  0  0  0  0  0  0  0  0  0  0
   -6.7783   -8.1539   10.6699 C   0  0  0  0  0  0  0  0  0  0  0  0
   -5.7450   -8.2675   11.8233 C   0  0  0  0  0  0  0  0  0  0  0  0
   -6.1931   -9.3444   13.1952 C   0  0  0  0  0  0  0  0  0  0  0  0
   -7.6726  -10.1683   13.6693 C   0  0  0  0  0  0  0  0  0  0  0  0
   -8.9070  -13.8085   14.0982 C   0  0  0  0  0  0  0  0  0  0  0  0
   -8.1408  -14.5633   14.7244 O   0  0  0  0  0  0  0  0  0  0  0  0
  -10.4470  -20.1699   13.3377 N   0  0  0  0  0  0  0  0  0  0  0  0
  -11.7656  -20.9460   13.2031 C   0  0  0  0  0  0  0  0  0  0  0  0
  -12.2238  -22.7659   12.9650 C   0  0  0  0  0  0  0  0  0  0  0  0
  -12.0412  -23.7780   12.0044 C   0  0  0  0  0  0  0  0  0  0  0  0
  -12.9711  -24.8319   12.2088 C   0  0  0  0  0  0  0  0  0  0  0  0
  -13.7718  -24.4157   13.2293 C   0  0  0  0  0  0  0  0  0  0  0  0
  -13.4083  -23.1808   13.6266 O   0  0  0  0  0  0  0  0  0  0  0  0
  -10.0799  -21.5609   13.9068 C   0  0  0  0  0  0  0  0  0  0  0  0
   -9.7330  -22.2268   14.9879 C   0  0  0  0  0  0  0  0  0  0  0  0
   -9.6745  -23.7224   15.0016 C   0  0  0  0  0  0  0  0  0  0  0  0
   -9.7340  -24.6196   13.8030 C   0  0  0  0  0  0  0  0  0  0  0  0
   -9.2051  -23.8975   12.6236 C   0  0  0  0  0  0  0  0  0  0  0  0
   -9.3927  -22.3584   12.6920 C   0  0  0  0  0  0  0  0  0  0  0  0
  -11.5817  -16.0032   13.9634 H   0  0  0  0  0  0  0  0  0  0  0  0
  -10.9191  -16.4639   12.4145 H   0  0  0  0  0  0  0  0  0  0  0  0
   -8.7424  -12.4342   11.3646 H   0  0  0  0  0  0  0  0  0  0  0  0
   -9.8187  -11.6434   14.6849 H   0  0  0  0  0  0  0  0  0  0  0  0
  -10.0895  -11.6519   12.8803 H   0  0  0  0  0  0  0  0  0  0  0  0
  -10.0996   -9.3151   14.2648 H   0  0  0  0  0  0  0  0  0  0  0  0
  -10.4766   -9.7770   12.5747 H   0  0  0  0  0  0  0  0  0  0  0  0
   -9.2515   -8.9031   10.6226 H   0  0  0  0  0  0  0  0  0  0  0  0
   -6.6045   -7.8757    9.6474 H   0  0  0  0  0  0  0  0  0  0  0  0
   -4.7172   -8.0489   11.6524 H   0  0  0  0  0  0  0  0  0  0  0  0
   -5.2946   -9.9532   13.4606 H   0  0  0  0  0  0  0  0  0  0  0  0
  -12.8108  -20.6827   13.3359 H   0  0  0  0  0  0  0  0  0  0  0  0
  -12.0533  -20.2295   13.9167 H   0  0  0  0  0  0  0  0  0  0  0  0
  -11.3695  -23.7536   11.1669 H   0  0  0  0  0  0  0  0  0  0  0  0
  -13.0693  -25.7470   11.6428 H   0  0  0  0  0  0  0  0  0  0  0  0
  -14.6320  -24.8349   13.7320 H   0  0  0  0  0  0  0  0  0  0  0  0
   -9.7025  -21.7373   15.9408 H   0  0  0  0  0  0  0  0  0  0  0  0
   -8.8086  -23.8995   15.5870 H   0  0  0  0  0  0  0  0  0  0  0  0
  -10.4938  -24.1419   15.5523 H   0  0  0  0  0  0  0  0  0  0  0  0
   -9.2056  -25.5647   13.9679 H   0  0  0  0  0  0  0  0  0  0  0  0
  -10.7552  -24.9669   13.6610 H   0  0  0  0  0  0  0  0  0  0  0  0
   -8.1481  -24.1251   12.4552 H   0  0  0  0  0  0  0  0  0  0  0  0
   -9.6264  -24.3481   11.7222 H   0  0  0  0  0  0  0  0  0  0  0  0
   -8.3831  -21.9270   12.6112 H   0  0  0  0  0  0  0  0  0  0  0  0
   -9.8825  -22.0934   11.7636 H   0  0  0  0  0  0  0  0  0  0  0  0
  1  2  2  0
  2  3  1  0
  3  4  1  0
  4  5  1  0
  5  6  2  0
  5  7  1  0
  7  8  1  0
  8  9  1  0
  9 10  1  0
 10 11  1  0
 11 12  2  0
 12 13  1  0
 13 14  2  0
 14 15  1  0
 15 16  2  0
  8 17  1  0
 17 18  2  0
  2 19  1  0
 19 20  1  0
 20 21  1  0
 21 22  2  0
 22 23  1  0
 23 24  2  0
 24 25  1  0
 19 26  1  0
 26 27  2  0
 27 28  1  0
 28 29  1  0
 29 30  1  0
 30 31  1  0
 17  4  1  0
 25 21  1  0
 31 26  1  0
 16  8  1  0
 16 11  1  0
  3 32  1  0
  3 33  1  0
  7 34  1  0
  9 35  1  0
  9 36  1  0
 10 37  1  0
 10 38  1  0
 12 39  1  0
 13 40  1  0
 14 41  1  0
 15 42  1  0
 20 43  1  0
 20 44  1  0
 22 45  1  0
 23 46  1  0
 24 47  1  0
 27 48  1  0
 28 49  1  0
 28 50  1  0
 29 51  1  0
 29 52  1  0
 30 53  1  0
 30 54  1  0
 31 55  1  0
 31 56  1  0
M  END
>  <Energy>  (638) 
1111.9236382551649

>  <compound_id>  (638) 
46345

>  <target_id>  (638) 
1

>  <reference_id>  (638) 
30

>  <inspiration_ids>  (638) 
[51, 30]

>  <energy_score>  (638) 
1038.6468839551867

>  <distance_score>  (638) 
8.628712286089774

>  <path>  (638) 
/opt/xchem-fragalysis-2/maxwin/BulkDock/SCRATCH/511023/C46345-P30/C46345-P30.minimised.mol

>  <scratch_subdir>  (638) 
/opt/xchem-fragalysis-2/maxwin/BulkDock/SCRATCH/511023/C46345-P30

>  <fragmenstein_runtime>  (638) 
22.671170234680176

>  <fragmenstein_outcome>  (638) 
too moved

>  <fragmenstein_mode>  (638) 
expansion

>  <fragmenstein_error>  (638) 


$$$$
C46363-P51
     RDKit          3D

 49 52  0  0  0  0  0  0  0  0999 V2000
  -11.9666    0.3135    5.9942 O   0  0  0  0  0  0  0  0  0  0  0  0
  -11.8557   -0.8416    5.7848 C   0  0  0  0  0  0  0  0  0  0  0  0
  -11.4697   -1.8349    6.8968 C   0  0  0  0  0  0  0  0  0  0  0  0
  -10.0316   -1.9803    6.8322 N   0  0  0  0  0  0  0  0  0  0  0  0
   -9.3672   -2.8076    5.9809 C   0  0  0  0  0  0  0  0  0  0  0  0
   -9.8612   -3.5597    5.1570 O   0  0  0  0  0  0  0  0  0  0  0  0
   -8.0103   -2.5866    6.1022 N   0  0  0  0  0  0  0  0  0  0  0  0
   -7.7891   -1.3423    6.7793 C   0  0  0  0  0  0  0  0  0  0  0  0
   -6.6150   -1.3084    7.7516 C   0  0  0  0  0  0  0  0  0  0  0  0
   -6.1870    0.1649    7.8379 C   0  0  0  0  0  0  0  0  0  0  0  0
   -6.5586    0.6759    6.4804 C   0  0  0  0  0  0  0  0  0  0  0  0
   -6.2112    1.8784    5.8883 C   0  0  0  0  0  0  0  0  0  0  0  0
   -6.7180    2.1691    4.6212 C   0  0  0  0  0  0  0  0  0  0  0  0
   -7.5831    1.2756    3.9762 C   0  0  0  0  0  0  0  0  0  0  0  0
   -7.9660    0.0860    4.5953 C   0  0  0  0  0  0  0  0  0  0  0  0
   -7.4515   -0.2014    5.8523 C   0  0  0  0  0  0  0  0  0  0  0  0
   -9.1544   -1.1303    7.4487 C   0  0  0  0  0  0  0  0  0  0  0  0
   -9.4156   -0.2968    8.3044 O   0  0  0  0  0  0  0  0  0  0  0  0
  -11.9333   -1.6464    4.4902 N   0  0  0  0  0  0  0  0  0  0  0  0
  -12.0814   -1.2027    2.9666 C   0  0  0  0  0  0  0  0  0  0  0  0
  -12.2448   -0.1641    2.4901 O   0  0  0  0  0  0  0  0  0  0  0  0
  -11.9697   -2.5307    2.3401 N   0  0  0  0  0  0  0  0  0  0  0  0
  -11.9362   -2.9127    0.9569 C   0  0  0  0  0  0  0  0  0  0  0  0
  -11.6719   -4.3983    0.7560 C   0  0  0  0  0  0  0  0  0  0  0  0
  -12.0958   -4.6299   -0.6857 C   0  0  0  0  0  0  0  0  0  0  0  0
  -13.2743   -3.6852   -0.9158 C   0  0  0  0  0  0  0  0  0  0  0  0
  -13.2755   -2.7031    0.2556 C   0  0  0  0  0  0  0  0  0  0  0  0
  -11.9622   -2.7998    6.7514 H   0  0  0  0  0  0  0  0  0  0  0  0
  -11.7719   -1.4123    7.8600 H   0  0  0  0  0  0  0  0  0  0  0  0
   -7.4087   -2.9342    5.3681 H   0  0  0  0  0  0  0  0  0  0  0  0
   -6.8776   -1.6894    8.7389 H   0  0  0  0  0  0  0  0  0  0  0  0
   -5.7794   -1.9109    7.3693 H   0  0  0  0  0  0  0  0  0  0  0  0
   -6.7627    0.6947    8.6028 H   0  0  0  0  0  0  0  0  0  0  0  0
   -5.1189    0.2510    8.0480 H   0  0  0  0  0  0  0  0  0  0  0  0
   -5.5960    2.6099    6.3967 H   0  0  0  0  0  0  0  0  0  0  0  0
   -6.4639    3.1092    4.1371 H   0  0  0  0  0  0  0  0  0  0  0  0
   -7.9851    1.5247    2.9965 H   0  0  0  0  0  0  0  0  0  0  0  0
   -8.6729   -0.5731    4.1005 H   0  0  0  0  0  0  0  0  0  0  0  0
  -11.7079   -2.6316    4.6146 H   0  0  0  0  0  0  0  0  0  0  0  0
  -11.7456   -3.2188    3.0499 H   0  0  0  0  0  0  0  0  0  0  0  0
  -11.1645   -2.3107    0.4620 H   0  0  0  0  0  0  0  0  0  0  0  0
  -12.2875   -5.0037    1.4334 H   0  0  0  0  0  0  0  0  0  0  0  0
  -10.6246   -4.6640    0.9304 H   0  0  0  0  0  0  0  0  0  0  0  0
  -12.3597   -5.6745   -0.8760 H   0  0  0  0  0  0  0  0  0  0  0  0
  -11.2749   -4.3657   -1.3631 H   0  0  0  0  0  0  0  0  0  0  0  0
  -14.2203   -4.2366   -0.9503 H   0  0  0  0  0  0  0  0  0  0  0  0
  -13.1656   -3.1625   -1.8722 H   0  0  0  0  0  0  0  0  0  0  0  0
  -13.4075   -1.6680   -0.0765 H   0  0  0  0  0  0  0  0  0  0  0  0
  -14.1109   -2.9354    0.9285 H   0  0  0  0  0  0  0  0  0  0  0  0
  1  2  2  0
  2  3  1  0
  3  4  1  0
  4  5  1  0
  5  6  2  0
  5  7  1  0
  7  8  1  0
  8  9  1  0
  9 10  1  0
 10 11  1  0
 11 12  2  0
 12 13  1  0
 13 14  2  0
 14 15  1  0
 15 16  2  0
  8 17  1  0
 17 18  2  0
  2 19  1  0
 19 20  1  0
 20 21  2  0
 20 22  1  0
 22 23  1  0
 23 24  1  0
 24 25  1  0
 25 26  1  0
 26 27  1  0
 17  4  1  0
 27 23  1  0
 16  8  1  0
 16 11  1  0
  3 28  1  0
  3 29  1  0
  7 30  1  0
  9 31  1  0
  9 32  1  0
 10 33  1  0
 10 34  1  0
 12 35  1  0
 13 36  1  0
 14 37  1  0
 15 38  1  0
 19 39  1  0
 22 40  1  0
 23 41  1  0
 24 42  1  0
 24 43  1  0
 25 44  1  0
 25 45  1  0
 26 46  1  0
 26 47  1  0
 27 48  1  0
 27 49  1  0
M  END
>  <Energy>  (639) 
-70.835637908495073

>  <compound_id>  (639) 
46363

>  <target_id>  (639) 
1

>  <reference_id>  (639) 
51

>  <inspiration_ids>  (639) 
[51, 30]

>  <energy_score>  (639) 
-146.74234979263537

>  <distance_score>  (639) 
1.3725145219152552

>  <path>  (639) 
/opt/xchem-fragalysis-2/maxwin/BulkDock/SCRATCH/511023/C46363-P51/C46363-P51.minimised.mol

>  <scratch_subdir>  (639) 
/opt/xchem-fragalysis-2/maxwin/BulkDock/SCRATCH/511023/C46363-P51

>  <fragmenstein_runtime>  (639) 
7.501994848251343

>  <fragmenstein_outcome>  (639) 
too moved

>  <fragmenstein_mode>  (639) 
expansion

>  <fragmenstein_error>  (639) 


$$$$
C46363-P30
     RDKit          3D

 49 52  0  0  0  0  0  0  0  0999 V2000
  -11.4534    0.2211    6.8174 O   0  0  0  0  0  0  0  0  0  0  0  0
  -11.1562   -0.7345    6.1923 C   0  0  0  0  0  0  0  0  0  0  0  0
  -10.6248   -2.0023    6.8891 C   0  0  0  0  0  0  0  0  0  0  0  0
   -9.2518   -2.2712    6.4851 N   0  0  0  0  0  0  0  0  0  0  0  0
   -8.8758   -2.9605    5.3750 C   0  0  0  0  0  0  0  0  0  0  0  0
   -9.5846   -3.3870    4.4772 O   0  0  0  0  0  0  0  0  0  0  0  0
   -7.5105   -2.9555    5.2759 N   0  0  0  0  0  0  0  0  0  0  0  0
   -6.9864   -1.8875    6.0829 C   0  0  0  0  0  0  0  0  0  0  0  0
   -5.6193   -2.2116    6.6692 C   0  0  0  0  0  0  0  0  0  0  0  0
   -4.6138   -1.8824    5.5512 C   0  0  0  0  0  0  0  0  0  0  0  0
   -5.3048   -0.7531    4.8472 C   0  0  0  0  0  0  0  0  0  0  0  0
   -4.7792    0.1473    3.9377 C   0  0  0  0  0  0  0  0  0  0  0  0
   -5.6091    1.1540    3.4396 C   0  0  0  0  0  0  0  0  0  0  0  0
   -6.9525    1.2320    3.8303 C   0  0  0  0  0  0  0  0  0  0  0  0
   -7.4888    0.2919    4.7089 C   0  0  0  0  0  0  0  0  0  0  0  0
   -6.6568   -0.7045    5.2029 C   0  0  0  0  0  0  0  0  0  0  0  0
   -8.1599   -1.6350    7.0297 C   0  0  0  0  0  0  0  0  0  0  0  0
   -8.1477   -0.8958    8.0019 O   0  0  0  0  0  0  0  0  0  0  0  0
  -11.0942   -0.9781    4.6882 N   0  0  0  0  0  0  0  0  0  0  0  0
  -11.3011   -0.0042    3.4398 C   0  0  0  0  0  0  0  0  0  0  0  0
  -11.6263    1.1011    3.3855 O   0  0  0  0  0  0  0  0  0  0  0  0
  -10.8550   -0.9194    2.3729 N   0  0  0  0  0  0  0  0  0  0  0  0
  -10.6041   -0.6792    0.9767 C   0  0  0  0  0  0  0  0  0  0  0  0
   -9.7566   -1.7501    0.3067 C   0  0  0  0  0  0  0  0  0  0  0  0
  -10.0388   -1.5243   -1.1688 C   0  0  0  0  0  0  0  0  0  0  0  0
  -11.5289   -1.2084   -1.2196 C   0  0  0  0  0  0  0  0  0  0  0  0
  -11.8819   -0.6035    0.1406 C   0  0  0  0  0  0  0  0  0  0  0  0
  -11.2665   -2.8544    6.6618 H   0  0  0  0  0  0  0  0  0  0  0  0
  -10.6354   -1.7990    7.9626 H   0  0  0  0  0  0  0  0  0  0  0  0
   -7.1104   -3.1928    4.3791 H   0  0  0  0  0  0  0  0  0  0  0  0
   -5.4163   -1.5796    7.5444 H   0  0  0  0  0  0  0  0  0  0  0  0
   -5.5243   -3.2560    6.9788 H   0  0  0  0  0  0  0  0  0  0  0  0
   -3.6455   -1.5997    5.9676 H   0  0  0  0  0  0  0  0  0  0  0  0
   -4.4942   -2.7299    4.8694 H   0  0  0  0  0  0  0  0  0  0  0  0
   -3.7414    0.0906    3.6274 H   0  0  0  0  0  0  0  0  0  0  0  0
   -5.2113    1.8875    2.7417 H   0  0  0  0  0  0  0  0  0  0  0  0
   -7.5864    2.0252    3.4381 H   0  0  0  0  0  0  0  0  0  0  0  0
   -8.5339    0.3654    4.9927 H   0  0  0  0  0  0  0  0  0  0  0  0
  -10.7173   -1.8839    4.4459 H   0  0  0  0  0  0  0  0  0  0  0  0
  -10.5681   -1.7932    2.7819 H   0  0  0  0  0  0  0  0  0  0  0  0
  -10.0908    0.2889    0.9106 H   0  0  0  0  0  0  0  0  0  0  0  0
  -10.0678   -2.7555    0.6050 H   0  0  0  0  0  0  0  0  0  0  0  0
   -8.6937   -1.6473    0.5469 H   0  0  0  0  0  0  0  0  0  0  0  0
   -9.7776   -2.3919   -1.7815 H   0  0  0  0  0  0  0  0  0  0  0  0
   -9.4630   -0.6654   -1.5341 H   0  0  0  0  0  0  0  0  0  0  0  0
  -12.1049   -2.1270   -1.3770 H   0  0  0  0  0  0  0  0  0  0  0  0
  -11.7680   -0.5288   -2.0437 H   0  0  0  0  0  0  0  0  0  0  0  0
  -12.2159    0.4350    0.0373 H   0  0  0  0  0  0  0  0  0  0  0  0
  -12.7082   -1.1584    0.5984 H   0  0  0  0  0  0  0  0  0  0  0  0
  1  2  2  0
  2  3  1  0
  3  4  1  0
  4  5  1  0
  5  6  2  0
  5  7  1  0
  7  8  1  0
  8  9  1  0
  9 10  1  0
 10 11  1  0
 11 12  2  0
 12 13  1  0
 13 14  2  0
 14 15  1  0
 15 16  2  0
  8 17  1  0
 17 18  2  0
  2 19  1  0
 19 20  1  0
 20 21  2  0
 20 22  1  0
 22 23  1  0
 23 24  1  0
 24 25  1  0
 25 26  1  0
 26 27  1  0
 17  4  1  0
 27 23  1  0
 16  8  1  0
 16 11  1  0
  3 28  1  0
  3 29  1  0
  7 30  1  0
  9 31  1  0
  9 32  1  0
 10 33  1  0
 10 34  1  0
 12 35  1  0
 13 36  1  0
 14 37  1  0
 15 38  1  0
 19 39  1  0
 22 40  1  0
 23 41  1  0
 24 42  1  0
 24 43  1  0
 25 44  1  0
 25 45  1  0
 26 46  1  0
 26 47  1  0
 27 48  1  0
 27 49  1  0
M  END
>  <Energy>  (640) 
-69.303465008419508

>  <compound_id>  (640) 
46363

>  <target_id>  (640) 
1

>  <reference_id>  (640) 
30

>  <inspiration_ids>  (640) 
[51, 30]

>  <energy_score>  (640) 
-145.21017689256027

>  <distance_score>  (640) 
1.700113179141458

>  <path>  (640) 
/opt/xchem-fragalysis-2/maxwin/BulkDock/SCRATCH/511023/C46363-P30/C46363-P30.minimised.mol

>  <scratch_subdir>  (640) 
/opt/xchem-fragalysis-2/maxwin/BulkDock/SCRATCH/511023/C46363-P30

>  <fragmenstein_runtime>  (640) 
7.547116994857788

>  <fragmenstein_outcome>  (640) 
too moved

>  <fragmenstein_mode>  (640) 
expansion

>  <fragmenstein_error>  (640) 


$$$$
C46364-P51
     RDKit          3D

 54 57  0  0  0  0  0  0  0  0999 V2000
  -12.1506    1.4403    6.6500 C   0  0  0  0  0  0  0  0  0  0  0  0
  -13.1145    0.2556    6.8802 C   0  0  0  0  0  0  0  0  0  0  0  0
  -13.0621   -0.9097    5.8818 N   0  0  0  0  0  0  0  0  0  0  0  0
  -11.6943   -1.1869    5.5194 C   0  0  0  0  0  0  0  0  0  0  0  0
  -11.0201   -0.7550    4.6175 O   0  0  0  0  0  0  0  0  0  0  0  0
  -11.1385   -2.2462    6.5021 C   0  0  0  0  0  0  0  0  0  0  0  0
   -9.6980   -2.1913    6.4900 N   0  0  0  0  0  0  0  0  0  0  0  0
   -8.9000   -2.8441    5.6016 C   0  0  0  0  0  0  0  0  0  0  0  0
   -9.2169   -3.6111    4.7092 O   0  0  0  0  0  0  0  0  0  0  0  0
   -7.5899   -2.4506    5.8108 N   0  0  0  0  0  0  0  0  0  0  0  0
   -7.5614   -1.2689    6.6176 C   0  0  0  0  0  0  0  0  0  0  0  0
   -6.4860   -1.2526    7.7001 C   0  0  0  0  0  0  0  0  0  0  0  0
   -6.1911    0.2283    7.9739 C   0  0  0  0  0  0  0  0  0  0  0  0
   -6.4973    0.8609    6.6525 C   0  0  0  0  0  0  0  0  0  0  0  0
   -6.2111    2.1474    6.2281 C   0  0  0  0  0  0  0  0  0  0  0  0
   -6.6305    2.5364    4.9552 C   0  0  0  0  0  0  0  0  0  0  0  0
   -7.3584    1.6557    4.1429 C   0  0  0  0  0  0  0  0  0  0  0  0
   -7.6893    0.3791    4.5972 C   0  0  0  0  0  0  0  0  0  0  0  0
   -7.2535   -0.0074    5.8559 C   0  0  0  0  0  0  0  0  0  0  0  0
   -8.9853   -1.2549    7.1826 C   0  0  0  0  0  0  0  0  0  0  0  0
   -9.4152   -0.4838    8.0317 O   0  0  0  0  0  0  0  0  0  0  0  0
  -14.1410   -0.0643    5.1711 C   0  0  0  0  0  0  0  0  0  0  0  0
  -14.0395   -0.4277    3.6589 C   0  0  0  0  0  0  0  0  0  0  0  0
  -15.1470    0.2062    2.8201 C   0  0  0  0  0  0  0  0  0  0  0  0
  -16.5415    0.0191    3.4098 C   0  0  0  0  0  0  0  0  0  0  0  0
  -16.5442   -0.9192    4.6056 C   0  0  0  0  0  0  0  0  0  0  0  0
  -15.5714   -0.4416    5.6810 C   0  0  0  0  0  0  0  0  0  0  0  0
  -11.1061    1.1199    6.7025 H   0  0  0  0  0  0  0  0  0  0  0  0
  -12.2894    1.9377    5.6866 H   0  0  0  0  0  0  0  0  0  0  0  0
  -12.2977    2.1860    7.4384 H   0  0  0  0  0  0  0  0  0  0  0  0
  -14.1007    0.5828    7.2428 H   0  0  0  0  0  0  0  0  0  0  0  0
  -12.7227   -0.2142    7.7964 H   0  0  0  0  0  0  0  0  0  0  0  0
  -11.4620   -3.2395    6.1992 H   0  0  0  0  0  0  0  0  0  0  0  0
  -11.4915   -2.0334    7.5123 H   0  0  0  0  0  0  0  0  0  0  0  0
   -6.9408   -2.6339    5.0602 H   0  0  0  0  0  0  0  0  0  0  0  0
   -6.8037   -1.7562    8.6139 H   0  0  0  0  0  0  0  0  0  0  0  0
   -5.5716   -1.7481    7.3450 H   0  0  0  0  0  0  0  0  0  0  0  0
   -6.8647    0.6244    8.7402 H   0  0  0  0  0  0  0  0  0  0  0  0
   -5.1510    0.3687    8.2764 H   0  0  0  0  0  0  0  0  0  0  0  0
   -5.7070    2.8595    6.8712 H   0  0  0  0  0  0  0  0  0  0  0  0
   -6.4166    3.5405    4.5967 H   0  0  0  0  0  0  0  0  0  0  0  0
   -7.6964    1.9773    3.1605 H   0  0  0  0  0  0  0  0  0  0  0  0
   -8.3001   -0.2778    3.9820 H   0  0  0  0  0  0  0  0  0  0  0  0
  -14.0169    1.0287    5.1401 H   0  0  0  0  0  0  0  0  0  0  0  0
  -13.0750   -0.0953    3.2575 H   0  0  0  0  0  0  0  0  0  0  0  0
  -14.0609   -1.5175    3.5308 H   0  0  0  0  0  0  0  0  0  0  0  0
  -15.1146   -0.2195    1.8100 H   0  0  0  0  0  0  0  0  0  0  0  0
  -14.9500    1.2789    2.7023 H   0  0  0  0  0  0  0  0  0  0  0  0
  -17.2231   -0.3584    2.6389 H   0  0  0  0  0  0  0  0  0  0  0  0
  -16.9365    0.9963    3.7154 H   0  0  0  0  0  0  0  0  0  0  0  0
  -17.5544   -0.9808    5.0266 H   0  0  0  0  0  0  0  0  0  0  0  0
  -16.2793   -1.9325    4.2822 H   0  0  0  0  0  0  0  0  0  0  0  0
  -15.5147   -1.2033    6.4677 H   0  0  0  0  0  0  0  0  0  0  0  0
  -16.0082    0.4472    6.1563 H   0  0  0  0  0  0  0  0  0  0  0  0
  1  2  1  0
  2  3  1  0
  3  4  1  0
  4  5  2  0
  4  6  1  0
  6  7  1  0
  7  8  1  0
  8  9  2  0
  8 10  1  0
 10 11  1  0
 11 12  1  0
 12 13  1  0
 13 14  1  0
 14 15  2  0
 15 16  1  0
 16 17  2  0
 17 18  1  0
 18 19  2  0
 11 20  1  0
 20 21  2  0
  3 22  1  0
 22 23  1  0
 23 24  1  0
 24 25  1  0
 25 26  1  0
 26 27  1  0
 20  7  1  0
 27 22  1  0
 19 11  1  0
 19 14  1  0
  1 28  1  0
  1 29  1  0
  1 30  1  0
  2 31  1  0
  2 32  1  0
  6 33  1  0
  6 34  1  0
 10 35  1  0
 12 36  1  0
 12 37  1  0
 13 38  1  0
 13 39  1  0
 15 40  1  0
 16 41  1  0
 17 42  1  0
 18 43  1  0
 22 44  1  0
 23 45  1  0
 23 46  1  0
 24 47  1  0
 24 48  1  0
 25 49  1  0
 25 50  1  0
 26 51  1  0
 26 52  1  0
 27 53  1  0
 27 54  1  0
M  END
>  <Energy>  (641) 
58.541467113688014

>  <compound_id>  (641) 
46364

>  <target_id>  (641) 
1

>  <reference_id>  (641) 
51

>  <inspiration_ids>  (641) 
[51, 30]

>  <energy_score>  (641) 
34.48989525483199

>  <distance_score>  (641) 
1.4428878012201598

>  <path>  (641) 
/opt/xchem-fragalysis-2/maxwin/BulkDock/SCRATCH/511023/C46364-P51/C46364-P51.minimised.mol

>  <scratch_subdir>  (641) 
/opt/xchem-fragalysis-2/maxwin/BulkDock/SCRATCH/511023/C46364-P51

>  <fragmenstein_runtime>  (641) 
6.41886568069458

>  <fragmenstein_outcome>  (641) 
too moved

>  <fragmenstein_mode>  (641) 
expansion

>  <fragmenstein_error>  (641) 


$$$$
C46364-P30
     RDKit          3D

 54 57  0  0  0  0  0  0  0  0999 V2000
  -12.0783    1.8107    6.5495 C   0  0  0  0  0  0  0  0  0  0  0  0
  -13.1158    0.7826    7.0558 C   0  0  0  0  0  0  0  0  0  0  0  0
  -13.2490   -0.5339    6.2781 N   0  0  0  0  0  0  0  0  0  0  0  0
  -11.9442   -1.0068    5.8821 C   0  0  0  0  0  0  0  0  0  0  0  0
  -11.3101   -0.8052    4.8762 O   0  0  0  0  0  0  0  0  0  0  0  0
  -11.4268   -1.9568    6.9910 C   0  0  0  0  0  0  0  0  0  0  0  0
   -9.9899   -2.0372    6.8964 N   0  0  0  0  0  0  0  0  0  0  0  0
   -9.2676   -3.0294    6.3103 C   0  0  0  0  0  0  0  0  0  0  0  0
   -9.6462   -4.1036    5.8791 O   0  0  0  0  0  0  0  0  0  0  0  0
   -7.9364   -2.6495    6.2889 N   0  0  0  0  0  0  0  0  0  0  0  0
   -7.7905   -1.2956    6.7198 C   0  0  0  0  0  0  0  0  0  0  0  0
   -6.6420   -1.0384    7.6861 C   0  0  0  0  0  0  0  0  0  0  0  0
   -6.3573    0.4615    7.5825 C   0  0  0  0  0  0  0  0  0  0  0  0
   -6.6724    0.7247    6.1436 C   0  0  0  0  0  0  0  0  0  0  0  0
   -6.3528    1.8330    5.3790 C   0  0  0  0  0  0  0  0  0  0  0  0
   -6.8207    1.8858    4.0656 C   0  0  0  0  0  0  0  0  0  0  0  0
   -7.6198    0.8554    3.5475 C   0  0  0  0  0  0  0  0  0  0  0  0
   -7.9669   -0.2430    4.3348 C   0  0  0  0  0  0  0  0  0  0  0  0
   -7.4839   -0.2998    5.6321 C   0  0  0  0  0  0  0  0  0  0  0  0
   -9.1696   -1.0404    7.3339 C   0  0  0  0  0  0  0  0  0  0  0  0
   -9.4889   -0.0823    8.0276 O   0  0  0  0  0  0  0  0  0  0  0  0
  -14.2986    0.2807    5.5036 C   0  0  0  0  0  0  0  0  0  0  0  0
  -14.3151   -0.2894    4.0442 C   0  0  0  0  0  0  0  0  0  0  0  0
  -15.6426   -0.1038    3.3012 C   0  0  0  0  0  0  0  0  0  0  0  0
  -16.4557    1.0576    3.8514 C   0  0  0  0  0  0  0  0  0  0  0  0
  -16.7753    0.8674    5.3337 C   0  0  0  0  0  0  0  0  0  0  0  0
  -15.7220    0.0438    6.0797 C   0  0  0  0  0  0  0  0  0  0  0  0
  -11.0652    1.4004    6.5678 H   0  0  0  0  0  0  0  0  0  0  0  0
  -12.2683    2.1573    5.5302 H   0  0  0  0  0  0  0  0  0  0  0  0
  -12.0830    2.6852    7.2087 H   0  0  0  0  0  0  0  0  0  0  0  0
  -14.0359    1.2693    7.4140 H   0  0  0  0  0  0  0  0  0  0  0  0
  -12.6900    0.4405    8.0122 H   0  0  0  0  0  0  0  0  0  0  0  0
  -11.6906   -1.5548    7.9730 H   0  0  0  0  0  0  0  0  0  0  0  0
  -11.8758   -2.9421    6.8630 H   0  0  0  0  0  0  0  0  0  0  0  0
   -7.2823   -3.1723    5.7246 H   0  0  0  0  0  0  0  0  0  0  0  0
   -6.8712   -1.3111    8.7123 H   0  0  0  0  0  0  0  0  0  0  0  0
   -5.7497   -1.6048    7.3835 H   0  0  0  0  0  0  0  0  0  0  0  0
   -7.0289    1.0421    8.2225 H   0  0  0  0  0  0  0  0  0  0  0  0
   -5.3251    0.6670    7.8553 H   0  0  0  0  0  0  0  0  0  0  0  0
   -5.7821    2.6619    5.7823 H   0  0  0  0  0  0  0  0  0  0  0  0
   -6.5880    2.7460    3.4425 H   0  0  0  0  0  0  0  0  0  0  0  0
   -8.0011    0.9265    2.5315 H   0  0  0  0  0  0  0  0  0  0  0  0
   -8.6348   -1.0083    3.9467 H   0  0  0  0  0  0  0  0  0  0  0  0
  -14.1220    1.3528    5.3251 H   0  0  0  0  0  0  0  0  0  0  0  0
  -13.5127    0.2007    3.4772 H   0  0  0  0  0  0  0  0  0  0  0  0
  -14.0711   -1.3591    4.0351 H   0  0  0  0  0  0  0  0  0  0  0  0
  -16.2333   -1.0251    3.3852 H   0  0  0  0  0  0  0  0  0  0  0  0
  -15.4480    0.0413    2.2325 H   0  0  0  0  0  0  0  0  0  0  0  0
  -17.3867    1.1738    3.2851 H   0  0  0  0  0  0  0  0  0  0  0  0
  -15.8915    1.9888    3.7155 H   0  0  0  0  0  0  0  0  0  0  0  0
  -16.8759    1.8539    5.8020 H   0  0  0  0  0  0  0  0  0  0  0  0
  -17.7485    0.3739    5.4436 H   0  0  0  0  0  0  0  0  0  0  0  0
  -15.9746   -1.0201    5.9932 H   0  0  0  0  0  0  0  0  0  0  0  0
  -15.7935    0.2648    7.1499 H   0  0  0  0  0  0  0  0  0  0  0  0
  1  2  1  0
  2  3  1  0
  3  4  1  0
  4  5  2  0
  4  6  1  0
  6  7  1  0
  7  8  1  0
  8  9  2  0
  8 10  1  0
 10 11  1  0
 11 12  1  0
 12 13  1  0
 13 14  1  0
 14 15  2  0
 15 16  1  0
 16 17  2  0
 17 18  1  0
 18 19  2  0
 11 20  1  0
 20 21  2  0
  3 22  1  0
 22 23  1  0
 23 24  1  0
 24 25  1  0
 25 26  1  0
 26 27  1  0
 20  7  1  0
 27 22  1  0
 19 11  1  0
 19 14  1  0
  1 28  1  0
  1 29  1  0
  1 30  1  0
  2 31  1  0
  2 32  1  0
  6 33  1  0
  6 34  1  0
 10 35  1  0
 12 36  1  0
 12 37  1  0
 13 38  1  0
 13 39  1  0
 15 40  1  0
 16 41  1  0
 17 42  1  0
 18 43  1  0
 22 44  1  0
 23 45  1  0
 23 46  1  0
 24 47  1  0
 24 48  1  0
 25 49  1  0
 25 50  1  0
 26 51  1  0
 26 52  1  0
 27 53  1  0
 27 54  1  0
M  END
>  <Energy>  (642) 
59.971138778382546

>  <compound_id>  (642) 
46364

>  <target_id>  (642) 
1

>  <reference_id>  (642) 
30

>  <inspiration_ids>  (642) 
[51, 30]

>  <energy_score>  (642) 
35.91956691952407

>  <distance_score>  (642) 
1.4580513992494826

>  <path>  (642) 
/opt/xchem-fragalysis-2/maxwin/BulkDock/SCRATCH/511023/C46364-P30/C46364-P30.minimised.mol

>  <scratch_subdir>  (642) 
/opt/xchem-fragalysis-2/maxwin/BulkDock/SCRATCH/511023/C46364-P30

>  <fragmenstein_runtime>  (642) 
7.998741626739502

>  <fragmenstein_outcome>  (642) 
too moved

>  <fragmenstein_mode>  (642) 
expansion

>  <fragmenstein_error>  (642) 


$$$$
C46365-P51
     RDKit          3D

 52 55  0  0  0  0  0  0  0  0999 V2000
   -5.3829  -16.6342   14.3603 O   0  0  0  0  0  0  0  0  0  0  0  0
   -5.7737  -16.3838   13.2548 C   0  0  0  0  0  0  0  0  0  0  0  0
   -5.4354  -14.5268   12.6463 C   0  0  0  0  0  0  0  0  0  0  0  0
   -5.2661  -12.6445   12.2598 N   0  0  0  0  0  0  0  0  0  0  0  0
   -4.8551  -11.4054   12.7389 C   0  0  0  0  0  0  0  0  0  0  0  0
   -5.2974  -10.6982   13.6667 O   0  0  0  0  0  0  0  0  0  0  0  0
   -4.1984  -10.4421   11.5544 N   0  0  0  0  0  0  0  0  0  0  0  0
   -5.2639  -10.0829   10.4804 C   0  0  0  0  0  0  0  0  0  0  0  0
   -5.0514   -8.7608   10.1954 C   0  0  0  0  0  0  0  0  0  0  0  0
   -6.0712   -8.7075    8.5498 C   0  0  0  0  0  0  0  0  0  0  0  0
   -7.2716   -7.7726    8.7111 C   0  0  0  0  0  0  0  0  0  0  0  0
   -7.8431   -6.1511    7.7087 C   0  0  0  0  0  0  0  0  0  0  0  0
   -7.6744   -5.0175    8.4316 C   0  0  0  0  0  0  0  0  0  0  0  0
   -6.7623   -5.5635    9.5209 C   0  0  0  0  0  0  0  0  0  0  0  0
   -5.9444   -6.8546   10.4444 C   0  0  0  0  0  0  0  0  0  0  0  0
   -6.4329   -8.3203   10.2042 C   0  0  0  0  0  0  0  0  0  0  0  0
   -5.9609  -11.9290   11.5851 C   0  0  0  0  0  0  0  0  0  0  0  0
   -7.0980  -12.5107   11.8934 O   0  0  0  0  0  0  0  0  0  0  0  0
   -6.4808  -17.4472   12.0797 N   0  0  0  0  0  0  0  0  0  0  0  0
   -6.8007  -19.0151   12.1477 C   0  0  0  0  0  0  0  0  0  0  0  0
   -8.2544  -20.1691   11.5843 C   0  0  0  0  0  0  0  0  0  0  0  0
   -8.9190  -21.7762   11.7616 C   0  0  0  0  0  0  0  0  0  0  0  0
   -9.0480  -22.5446   12.8753 C   0  0  0  0  0  0  0  0  0  0  0  0
   -9.8915  -23.7936   13.0281 C   0  0  0  0  0  0  0  0  0  0  0  0
  -10.1223  -24.5248   11.7263 C   0  0  0  0  0  0  0  0  0  0  0  0
  -10.6550  -23.5024   10.7499 C   0  0  0  0  0  0  0  0  0  0  0  0
   -9.6196  -22.3930   10.5276 C   0  0  0  0  0  0  0  0  0  0  0  0
   -4.3434  -14.5449   12.7784 H   0  0  0  0  0  0  0  0  0  0  0  0
   -5.8382  -14.8794   11.6862 H   0  0  0  0  0  0  0  0  0  0  0  0
   -4.0678   -9.7064   12.2567 H   0  0  0  0  0  0  0  0  0  0  0  0
   -5.0709   -8.4543   11.3477 H   0  0  0  0  0  0  0  0  0  0  0  0
   -4.3369   -8.0284   10.0779 H   0  0  0  0  0  0  0  0  0  0  0  0
   -6.2665   -9.5935    7.9442 H   0  0  0  0  0  0  0  0  0  0  0  0
   -5.1527   -8.5451    8.2186 H   0  0  0  0  0  0  0  0  0  0  0  0
   -7.6914   -5.9283    6.6326 H   0  0  0  0  0  0  0  0  0  0  0  0
   -7.6534   -4.0209    8.0189 H   0  0  0  0  0  0  0  0  0  0  0  0
   -5.8853   -5.1439    9.1049 H   0  0  0  0  0  0  0  0  0  0  0  0
   -5.2011   -6.5284   11.1585 H   0  0  0  0  0  0  0  0  0  0  0  0
   -6.6299  -16.9491   11.2103 H   0  0  0  0  0  0  0  0  0  0  0  0
   -7.4470  -18.2780   12.6135 H   0  0  0  0  0  0  0  0  0  0  0  0
   -5.9605  -19.5056   12.5750 H   0  0  0  0  0  0  0  0  0  0  0  0
   -8.3158  -20.0448   10.5124 H   0  0  0  0  0  0  0  0  0  0  0  0
   -9.1652  -19.6348   11.9063 H   0  0  0  0  0  0  0  0  0  0  0  0
   -8.5969  -22.2945   13.8290 H   0  0  0  0  0  0  0  0  0  0  0  0
  -10.8558  -23.4902   13.4487 H   0  0  0  0  0  0  0  0  0  0  0  0
   -9.4746  -24.4897   13.7567 H   0  0  0  0  0  0  0  0  0  0  0  0
  -10.8479  -25.3331   11.8688 H   0  0  0  0  0  0  0  0  0  0  0  0
   -9.1931  -24.9755   11.3580 H   0  0  0  0  0  0  0  0  0  0  0  0
  -10.9101  -23.9788    9.7967 H   0  0  0  0  0  0  0  0  0  0  0  0
  -11.5657  -23.1122   11.1796 H   0  0  0  0  0  0  0  0  0  0  0  0
   -8.9017  -22.9671    9.9784 H   0  0  0  0  0  0  0  0  0  0  0  0
   -9.9522  -21.6497    9.8069 H   0  0  0  0  0  0  0  0  0  0  0  0
  1  2  2  0
  2  3  1  0
  3  4  1  0
  4  5  1  0
  5  6  2  0
  5  7  1  0
  7  8  1  0
  8  9  1  0
  9 10  1  0
 10 11  1  0
 11 12  2  0
 12 13  1  0
 13 14  2  0
 14 15  1  0
 15 16  2  0
  8 17  1  0
 17 18  2  0
  2 19  1  0
 19 20  1  0
 20 21  1  0
 21 22  1  0
 22 23  2  0
 23 24  1  0
 24 25  1  0
 25 26  1  0
 26 27  1  0
 17  4  1  0
 27 22  1  0
 16  8  1  0
 16 11  1  0
  3 28  1  0
  3 29  1  0
  7 30  1  0
  9 31  1  0
  9 32  1  0
 10 33  1  0
 10 34  1  0
 12 35  1  0
 13 36  1  0
 14 37  1  0
 15 38  1  0
 19 39  1  0
 20 40  1  0
 20 41  1  0
 21 42  1  0
 21 43  1  0
 23 44  1  0
 24 45  1  0
 24 46  1  0
 25 47  1  0
 25 48  1  0
 26 49  1  0
 26 50  1  0
 27 51  1  0
 27 52  1  0
M  END
>  <Energy>  (643) 
1496.7848115149527

>  <compound_id>  (643) 
46365

>  <target_id>  (643) 
1

>  <reference_id>  (643) 
51

>  <inspiration_ids>  (643) 
[51, 30]

>  <energy_score>  (643) 
1464.3088162608578

>  <distance_score>  (643) 
8.00908863459448

>  <path>  (643) 
/opt/xchem-fragalysis-2/maxwin/BulkDock/SCRATCH/511023/C46365-P51/C46365-P51.minimised.mol

>  <scratch_subdir>  (643) 
/opt/xchem-fragalysis-2/maxwin/BulkDock/SCRATCH/511023/C46365-P51

>  <fragmenstein_runtime>  (643) 
20.896896839141846

>  <fragmenstein_outcome>  (643) 
too moved

>  <fragmenstein_mode>  (643) 
expansion

>  <fragmenstein_error>  (643) 


$$$$
C46365-P30
     RDKit          3D

 52 55  0  0  0  0  0  0  0  0999 V2000
   -8.2093  -16.9324   14.0910 O   0  0  0  0  0  0  0  0  0  0  0  0
   -9.0235  -17.0897   13.2028 C   0  0  0  0  0  0  0  0  0  0  0  0
  -10.1095  -15.4483   12.9941 C   0  0  0  0  0  0  0  0  0  0  0  0
   -9.6297  -13.6592   13.1023 N   0  0  0  0  0  0  0  0  0  0  0  0
   -8.5251  -12.9955   13.3605 C   0  0  0  0  0  0  0  0  0  0  0  0
   -7.4561  -12.9432   12.7828 O   0  0  0  0  0  0  0  0  0  0  0  0
   -8.8055  -11.8681   14.0676 N   0  0  0  0  0  0  0  0  0  0  0  0
   -9.4322  -10.8499   13.2456 C   0  0  0  0  0  0  0  0  0  0  0  0
   -9.6009   -9.9452   14.5589 C   0  0  0  0  0  0  0  0  0  0  0  0
   -8.1736   -9.3216   14.8692 C   0  0  0  0  0  0  0  0  0  0  0  0
   -7.4997   -9.2953   13.5039 C   0  0  0  0  0  0  0  0  0  0  0  0
   -5.9136   -8.9770   12.8514 C   0  0  0  0  0  0  0  0  0  0  0  0
   -5.7615   -8.2174   11.3043 C   0  0  0  0  0  0  0  0  0  0  0  0
   -7.0095   -8.2730   10.4126 C   0  0  0  0  0  0  0  0  0  0  0  0
   -8.5155   -8.9481   11.1688 C   0  0  0  0  0  0  0  0  0  0  0  0
   -8.6377   -9.5886   12.6343 C   0  0  0  0  0  0  0  0  0  0  0  0
   -9.9190  -12.4750   12.3759 C   0  0  0  0  0  0  0  0  0  0  0  0
  -10.4025  -12.5868   11.2532 O   0  0  0  0  0  0  0  0  0  0  0  0
   -9.1731  -18.5114   12.1961 N   0  0  0  0  0  0  0  0  0  0  0  0
   -8.1997  -19.9489   12.0795 C   0  0  0  0  0  0  0  0  0  0  0  0
   -8.7483  -21.4903   12.3214 C   0  0  0  0  0  0  0  0  0  0  0  0
   -9.7586  -22.4961   12.9021 C   0  0  0  0  0  0  0  0  0  0  0  0
  -10.5588  -23.1807   12.0582 C   0  0  0  0  0  0  0  0  0  0  0  0
  -11.3954  -24.3953   12.2663 C   0  0  0  0  0  0  0  0  0  0  0  0
  -11.2971  -24.9376   13.6654 C   0  0  0  0  0  0  0  0  0  0  0  0
   -9.9471  -24.5886   14.2690 C   0  0  0  0  0  0  0  0  0  0  0  0
   -9.6015  -23.0743   14.2572 C   0  0  0  0  0  0  0  0  0  0  0  0
  -10.8944  -15.4953   13.7402 H   0  0  0  0  0  0  0  0  0  0  0  0
  -10.6841  -15.4273   12.1225 H   0  0  0  0  0  0  0  0  0  0  0  0
   -9.3874  -12.1723   14.8382 H   0  0  0  0  0  0  0  0  0  0  0  0
  -10.3414   -9.1564   14.4206 H   0  0  0  0  0  0  0  0  0  0  0  0
   -9.9657  -10.4513   15.4676 H   0  0  0  0  0  0  0  0  0  0  0  0
   -7.6753   -9.8816   15.6572 H   0  0  0  0  0  0  0  0  0  0  0  0
   -8.3148   -8.2982   15.2365 H   0  0  0  0  0  0  0  0  0  0  0  0
   -5.0296   -9.4559   13.2313 H   0  0  0  0  0  0  0  0  0  0  0  0
   -4.8396   -8.0162   10.8221 H   0  0  0  0  0  0  0  0  0  0  0  0
   -6.9911   -8.0479    9.3521 H   0  0  0  0  0  0  0  0  0  0  0  0
   -9.4361   -9.0473   10.6307 H   0  0  0  0  0  0  0  0  0  0  0  0
   -9.8297  -18.3517   11.5105 H   0  0  0  0  0  0  0  0  0  0  0  0
   -8.0855  -20.0090   10.9842 H   0  0  0  0  0  0  0  0  0  0  0  0
   -7.1286  -19.8070   12.3007 H   0  0  0  0  0  0  0  0  0  0  0  0
   -9.1538  -21.5122   11.3363 H   0  0  0  0  0  0  0  0  0  0  0  0
   -7.7931  -22.0243   12.4296 H   0  0  0  0  0  0  0  0  0  0  0  0
  -10.5831  -22.8505   11.0409 H   0  0  0  0  0  0  0  0  0  0  0  0
  -11.0512  -25.1616   11.5604 H   0  0  0  0  0  0  0  0  0  0  0  0
  -12.4410  -24.1877   12.0146 H   0  0  0  0  0  0  0  0  0  0  0  0
  -12.1281  -24.5472   14.2469 H   0  0  0  0  0  0  0  0  0  0  0  0
  -11.4315  -26.0261   13.6541 H   0  0  0  0  0  0  0  0  0  0  0  0
   -9.2086  -25.1387   13.6740 H   0  0  0  0  0  0  0  0  0  0  0  0
   -9.8965  -25.0092   15.2655 H   0  0  0  0  0  0  0  0  0  0  0  0
  -10.2055  -22.5122   14.9305 H   0  0  0  0  0  0  0  0  0  0  0  0
   -8.6200  -22.8483   14.6598 H   0  0  0  0  0  0  0  0  0  0  0  0
  1  2  2  0
  2  3  1  0
  3  4  1  0
  4  5  1  0
  5  6  2  0
  5  7  1  0
  7  8  1  0
  8  9  1  0
  9 10  1  0
 10 11  1  0
 11 12  2  0
 12 13  1  0
 13 14  2  0
 14 15  1  0
 15 16  2  0
  8 17  1  0
 17 18  2  0
  2 19  1  0
 19 20  1  0
 20 21  1  0
 21 22  1  0
 22 23  2  0
 23 24  1  0
 24 25  1  0
 25 26  1  0
 26 27  1  0
 17  4  1  0
 27 22  1  0
 16  8  1  0
 16 11  1  0
  3 28  1  0
  3 29  1  0
  7 30  1  0
  9 31  1  0
  9 32  1  0
 10 33  1  0
 10 34  1  0
 12 35  1  0
 13 36  1  0
 14 37  1  0
 15 38  1  0
 19 39  1  0
 20 40  1  0
 20 41  1  0
 21 42  1  0
 21 43  1  0
 23 44  1  0
 24 45  1  0
 24 46  1  0
 25 47  1  0
 25 48  1  0
 26 49  1  0
 26 50  1  0
 27 51  1  0
 27 52  1  0
M  END
>  <Energy>  (644) 
580.50637164760849

>  <compound_id>  (644) 
46365

>  <target_id>  (644) 
1

>  <reference_id>  (644) 
30

>  <inspiration_ids>  (644) 
[51, 30]

>  <energy_score>  (644) 
548.0303763935278

>  <distance_score>  (644) 
9.227503635264215

>  <path>  (644) 
/opt/xchem-fragalysis-2/maxwin/BulkDock/SCRATCH/511023/C46365-P30/C46365-P30.minimised.mol

>  <scratch_subdir>  (644) 
/opt/xchem-fragalysis-2/maxwin/BulkDock/SCRATCH/511023/C46365-P30

>  <fragmenstein_runtime>  (644) 
20.059046983718872

>  <fragmenstein_outcome>  (644) 
too moved

>  <fragmenstein_mode>  (644) 
expansion

>  <fragmenstein_error>  (644) 


$$$$
C46366-P51
     RDKit          3D

 52 55  0  0  0  0  0  0  0  0999 V2000
   -6.9582   -8.6071    8.1963 C   0  0  0  0  0  0  0  0  0  0  0  0
   -6.9683   -7.6300    9.6896 C   0  0  0  0  0  0  0  0  0  0  0  0
   -7.9696   -8.7150   10.0920 N   0  0  0  0  0  0  0  0  0  0  0  0
   -8.5067   -9.3708   11.9068 C   0  0  0  0  0  0  0  0  0  0  0  0
   -8.1556   -8.8049   12.9696 O   0  0  0  0  0  0  0  0  0  0  0  0
   -9.5219  -11.2041   12.3908 C   0  0  0  0  0  0  0  0  0  0  0  0
   -9.9663  -13.1853   12.6224 N   0  0  0  0  0  0  0  0  0  0  0  0
  -11.0125  -14.0860   12.4657 C   0  0  0  0  0  0  0  0  0  0  0  0
  -12.2393  -14.1223   12.6876 O   0  0  0  0  0  0  0  0  0  0  0  0
  -10.8680  -15.4412   12.5657 N   0  0  0  0  0  0  0  0  0  0  0  0
  -10.1877  -16.3352   13.4494 C   0  0  0  0  0  0  0  0  0  0  0  0
   -9.2812  -17.5136   12.9271 C   0  0  0  0  0  0  0  0  0  0  0  0
   -9.5931  -19.0761   12.1470 C   0  0  0  0  0  0  0  0  0  0  0  0
  -10.7048  -19.4799   13.0264 C   0  0  0  0  0  0  0  0  0  0  0  0
  -10.5873  -21.0769   12.9076 C   0  0  0  0  0  0  0  0  0  0  0  0
  -10.1856  -21.7195   13.9848 C   0  0  0  0  0  0  0  0  0  0  0  0
  -10.1498  -20.7020   14.9684 C   0  0  0  0  0  0  0  0  0  0  0  0
  -10.5903  -18.9190   15.0869 C   0  0  0  0  0  0  0  0  0  0  0  0
  -10.9360  -18.1098   13.9239 C   0  0  0  0  0  0  0  0  0  0  0  0
   -9.7781  -14.3608   13.7116 C   0  0  0  0  0  0  0  0  0  0  0  0
   -8.9499  -14.0161   14.5423 O   0  0  0  0  0  0  0  0  0  0  0  0
   -7.0212   -7.0109    9.4757 C   0  0  0  0  0  0  0  0  0  0  0  0
   -7.4334   -5.6340    8.3915 C   0  0  0  0  0  0  0  0  0  0  0  0
   -6.7940   -4.4021    7.3597 C   0  0  0  0  0  0  0  0  0  0  0  0
   -7.6963   -3.2432    7.5386 C   0  0  0  0  0  0  0  0  0  0  0  0
   -8.5146   -3.7729    8.6572 C   0  0  0  0  0  0  0  0  0  0  0  0
   -7.6802   -5.1556    9.6765 C   0  0  0  0  0  0  0  0  0  0  0  0
   -6.2322   -9.4085    8.0541 H   0  0  0  0  0  0  0  0  0  0  0  0
   -6.7692   -8.0677    7.3270 H   0  0  0  0  0  0  0  0  0  0  0  0
   -8.0379   -8.7209    8.1668 H   0  0  0  0  0  0  0  0  0  0  0  0
   -6.3205   -7.8849   10.8478 H   0  0  0  0  0  0  0  0  0  0  0  0
   -5.8049   -8.2917    9.7134 H   0  0  0  0  0  0  0  0  0  0  0  0
   -9.0033  -11.2554   13.3686 H   0  0  0  0  0  0  0  0  0  0  0  0
  -10.4030  -10.6838   12.5950 H   0  0  0  0  0  0  0  0  0  0  0  0
  -11.5860  -15.7661   11.9363 H   0  0  0  0  0  0  0  0  0  0  0  0
  -10.0326  -17.5855   12.2208 H   0  0  0  0  0  0  0  0  0  0  0  0
   -8.2333  -17.3123   12.9065 H   0  0  0  0  0  0  0  0  0  0  0  0
   -8.7193  -19.7412   12.0284 H   0  0  0  0  0  0  0  0  0  0  0  0
   -9.9464  -19.1439   11.1334 H   0  0  0  0  0  0  0  0  0  0  0  0
  -10.3328  -21.5586   11.9637 H   0  0  0  0  0  0  0  0  0  0  0  0
   -9.8493  -22.7321   14.0958 H   0  0  0  0  0  0  0  0  0  0  0  0
   -9.8813  -21.1655   15.9266 H   0  0  0  0  0  0  0  0  0  0  0  0
  -10.2954  -18.5284   16.0490 H   0  0  0  0  0  0  0  0  0  0  0  0
   -8.1395   -5.8779    7.5220 H   0  0  0  0  0  0  0  0  0  0  0  0
   -6.8486   -4.7598    6.3243 H   0  0  0  0  0  0  0  0  0  0  0  0
   -5.7973   -3.9994    7.5377 H   0  0  0  0  0  0  0  0  0  0  0  0
   -7.1536   -2.3342    7.8184 H   0  0  0  0  0  0  0  0  0  0  0  0
   -8.2951   -3.0215    6.6499 H   0  0  0  0  0  0  0  0  0  0  0  0
   -8.9349   -2.9548    9.2268 H   0  0  0  0  0  0  0  0  0  0  0  0
   -9.3832   -4.2461    8.2071 H   0  0  0  0  0  0  0  0  0  0  0  0
   -7.0149   -4.9565   10.5244 H   0  0  0  0  0  0  0  0  0  0  0  0
   -8.7100   -5.0839   10.1741 H   0  0  0  0  0  0  0  0  0  0  0  0
  1  2  1  0
  2  3  1  0
  3  4  1  0
  4  5  2  0
  4  6  1  0
  6  7  1  0
  7  8  1  0
  8  9  2  0
  8 10  1  0
 10 11  1  0
 11 12  1  0
 12 13  1  0
 13 14  1  0
 14 15  2  0
 15 16  1  0
 16 17  2  0
 17 18  1  0
 18 19  2  0
 11 20  1  0
 20 21  2  0
  3 22  1  0
 22 23  2  0
 23 24  1  0
 24 25  1  0
 25 26  1  0
 26 27  1  0
 20  7  1  0
 27 22  1  0
 19 11  1  0
 19 14  1  0
  1 28  1  0
  1 29  1  0
  1 30  1  0
  2 31  1  0
  2 32  1  0
  6 33  1  0
  6 34  1  0
 10 35  1  0
 12 36  1  0
 12 37  1  0
 13 38  1  0
 13 39  1  0
 15 40  1  0
 16 41  1  0
 17 42  1  0
 18 43  1  0
 23 44  1  0
 24 45  1  0
 24 46  1  0
 25 47  1  0
 25 48  1  0
 26 49  1  0
 26 50  1  0
 27 51  1  0
 27 52  1  0
M  END
>  <Energy>  (645) 
2257.1123440684282

>  <compound_id>  (645) 
46366

>  <target_id>  (645) 
1

>  <reference_id>  (645) 
51

>  <inspiration_ids>  (645) 
[51, 30]

>  <energy_score>  (645) 
2193.842493672989

>  <distance_score>  (645) 
7.5310871921312135

>  <path>  (645) 
/opt/xchem-fragalysis-2/maxwin/BulkDock/SCRATCH/511023/C46366-P51/C46366-P51.minimised.mol

>  <scratch_subdir>  (645) 
/opt/xchem-fragalysis-2/maxwin/BulkDock/SCRATCH/511023/C46366-P51

>  <fragmenstein_runtime>  (645) 
18.51508903503418

>  <fragmenstein_outcome>  (645) 
too moved

>  <fragmenstein_mode>  (645) 
expansion

>  <fragmenstein_error>  (645) 


$$$$
C46366-P30
     RDKit          3D

 52 55  0  0  0  0  0  0  0  0999 V2000
   -5.6285   -8.4577    9.9394 C   0  0  0  0  0  0  0  0  0  0  0  0
   -5.3303   -6.9769   10.9129 C   0  0  0  0  0  0  0  0  0  0  0  0
   -6.3259   -7.6219   11.5789 N   0  0  0  0  0  0  0  0  0  0  0  0
   -6.1220   -8.2867   13.1719 C   0  0  0  0  0  0  0  0  0  0  0  0
   -5.2469   -8.2215   13.9380 O   0  0  0  0  0  0  0  0  0  0  0  0
   -7.7920   -9.3053   13.5256 C   0  0  0  0  0  0  0  0  0  0  0  0
   -8.7792  -10.8599   13.2654 N   0  0  0  0  0  0  0  0  0  0  0  0
   -8.2455  -11.8857   13.7479 C   0  0  0  0  0  0  0  0  0  0  0  0
   -7.3060  -12.4639   13.1594 O   0  0  0  0  0  0  0  0  0  0  0  0
   -9.2129  -12.5077   14.4987 N   0  0  0  0  0  0  0  0  0  0  0  0
   -9.2627  -13.5489   13.5747 C   0  0  0  0  0  0  0  0  0  0  0  0
   -8.2320  -14.4656   14.4407 C   0  0  0  0  0  0  0  0  0  0  0  0
   -8.1944  -15.9407   14.4952 C   0  0  0  0  0  0  0  0  0  0  0  0
   -9.5766  -15.9571   13.7268 C   0  0  0  0  0  0  0  0  0  0  0  0
   -9.9133  -17.0700   13.2212 C   0  0  0  0  0  0  0  0  0  0  0  0
  -11.0751  -17.0546   13.7724 C   0  0  0  0  0  0  0  0  0  0  0  0
  -11.8918  -15.7238   14.1736 C   0  0  0  0  0  0  0  0  0  0  0  0
  -11.5816  -14.7261   13.3911 C   0  0  0  0  0  0  0  0  0  0  0  0
  -10.2577  -14.6672   13.4312 C   0  0  0  0  0  0  0  0  0  0  0  0
   -9.4769  -12.0256   12.6163 C   0  0  0  0  0  0  0  0  0  0  0  0
  -10.0557  -12.2701   11.5603 O   0  0  0  0  0  0  0  0  0  0  0  0
   -5.3529   -6.3956   10.4334 C   0  0  0  0  0  0  0  0  0  0  0  0
   -4.0968   -5.6152    9.5890 C   0  0  0  0  0  0  0  0  0  0  0  0
   -3.8575   -4.4649    8.0651 C   0  0  0  0  0  0  0  0  0  0  0  0
   -5.4442   -3.8453    7.2604 C   0  0  0  0  0  0  0  0  0  0  0  0
   -6.9945   -4.6605    7.7516 C   0  0  0  0  0  0  0  0  0  0  0  0
   -6.8132   -5.6298    9.3342 C   0  0  0  0  0  0  0  0  0  0  0  0
   -5.0747   -9.2649   10.4099 H   0  0  0  0  0  0  0  0  0  0  0  0
   -5.4166   -8.5729    8.8895 H   0  0  0  0  0  0  0  0  0  0  0  0
   -6.7225   -8.4492    9.8142 H   0  0  0  0  0  0  0  0  0  0  0  0
   -5.0999   -6.6189   12.1466 H   0  0  0  0  0  0  0  0  0  0  0  0
   -4.3823   -7.7097   11.2686 H   0  0  0  0  0  0  0  0  0  0  0  0
   -7.4180   -9.6118   14.5133 H   0  0  0  0  0  0  0  0  0  0  0  0
   -8.5671   -8.6381   13.8876 H   0  0  0  0  0  0  0  0  0  0  0  0
   -9.9826  -11.9682   14.8433 H   0  0  0  0  0  0  0  0  0  0  0  0
   -9.0034  -14.3196   15.0843 H   0  0  0  0  0  0  0  0  0  0  0  0
   -7.4915  -14.3846   15.2209 H   0  0  0  0  0  0  0  0  0  0  0  0
   -7.3911  -16.4744   14.0003 H   0  0  0  0  0  0  0  0  0  0  0  0
   -8.0077  -16.1733   15.5496 H   0  0  0  0  0  0  0  0  0  0  0  0
   -9.2567  -17.8289   12.8817 H   0  0  0  0  0  0  0  0  0  0  0  0
  -11.3929  -18.0407   14.1318 H   0  0  0  0  0  0  0  0  0  0  0  0
  -12.8061  -15.7275   14.7644 H   0  0  0  0  0  0  0  0  0  0  0  0
  -12.3884  -14.0866   13.1674 H   0  0  0  0  0  0  0  0  0  0  0  0
   -3.1113   -5.8953    9.6366 H   0  0  0  0  0  0  0  0  0  0  0  0
   -3.2942   -5.0141    7.3030 H   0  0  0  0  0  0  0  0  0  0  0  0
   -3.2377   -3.5796    8.2651 H   0  0  0  0  0  0  0  0  0  0  0  0
   -5.5307   -2.7687    7.4645 H   0  0  0  0  0  0  0  0  0  0  0  0
   -5.3468   -3.9275    6.1742 H   0  0  0  0  0  0  0  0  0  0  0  0
   -7.7797   -3.9024    7.8808 H   0  0  0  0  0  0  0  0  0  0  0  0
   -7.3137   -5.2992    6.9205 H   0  0  0  0  0  0  0  0  0  0  0  0
   -5.9930   -5.2784    8.8756 H   0  0  0  0  0  0  0  0  0  0  0  0
   -7.0488   -6.6396    9.0845 H   0  0  0  0  0  0  0  0  0  0  0  0
  1  2  1  0
  2  3  1  0
  3  4  1  0
  4  5  2  0
  4  6  1  0
  6  7  1  0
  7  8  1  0
  8  9  2  0
  8 10  1  0
 10 11  1  0
 11 12  1  0
 12 13  1  0
 13 14  1  0
 14 15  2  0
 15 16  1  0
 16 17  2  0
 17 18  1  0
 18 19  2  0
 11 20  1  0
 20 21  2  0
  3 22  1  0
 22 23  2  0
 23 24  1  0
 24 25  1  0
 25 26  1  0
 26 27  1  0
 20  7  1  0
 27 22  1  0
 19 11  1  0
 19 14  1  0
  1 28  1  0
  1 29  1  0
  1 30  1  0
  2 31  1  0
  2 32  1  0
  6 33  1  0
  6 34  1  0
 10 35  1  0
 12 36  1  0
 12 37  1  0
 13 38  1  0
 13 39  1  0
 15 40  1  0
 16 41  1  0
 17 42  1  0
 18 43  1  0
 23 44  1  0
 24 45  1  0
 24 46  1  0
 25 47  1  0
 25 48  1  0
 26 49  1  0
 26 50  1  0
 27 51  1  0
 27 52  1  0
M  END
>  <Energy>  (646) 
1625.6191900043962

>  <compound_id>  (646) 
46366

>  <target_id>  (646) 
1

>  <reference_id>  (646) 
30

>  <inspiration_ids>  (646) 
[51, 30]

>  <energy_score>  (646) 
1562.3493396089848

>  <distance_score>  (646) 
9.667657593519156

>  <path>  (646) 
/opt/xchem-fragalysis-2/maxwin/BulkDock/SCRATCH/511023/C46366-P30/C46366-P30.minimised.mol

>  <scratch_subdir>  (646) 
/opt/xchem-fragalysis-2/maxwin/BulkDock/SCRATCH/511023/C46366-P30

>  <fragmenstein_runtime>  (646) 
18.130133867263794

>  <fragmenstein_outcome>  (646) 
too moved

>  <fragmenstein_mode>  (646) 
expansion

>  <fragmenstein_error>  (646) 


$$$$
C14360-P7
     RDKit          3D

 47 49  0  0  0  0  0  0  0  0999 V2000
  -13.9986    3.7584   12.7360 C   0  0  0  0  0  0  0  0  0  0  0  0
  -12.6383    3.3402   12.6612 O   0  0  0  0  0  0  0  0  0  0  0  0
  -12.5477    1.9758   12.6473 C   0  0  0  0  0  0  0  0  0  0  0  0
  -12.1193    1.4658   11.4134 C   0  0  0  0  0  0  0  0  0  0  0  0
  -11.9195    0.1137   11.2782 C   0  0  0  0  0  0  0  0  0  0  0  0
  -12.0316   -0.6710   12.4251 C   0  0  0  0  0  0  0  0  0  0  0  0
  -12.3904   -0.1699   13.7125 C   0  0  0  0  0  0  0  0  0  0  0  0
  -12.7579    1.1462   13.7750 C   0  0  0  0  0  0  0  0  0  0  0  0
  -13.2833    1.5582   14.9636 O   0  0  0  0  0  0  0  0  0  0  0  0
  -13.9074    0.4380   15.7220 C   0  0  0  0  0  0  0  0  0  0  0  0
  -12.7296   -0.8231   16.2964 C   0  0  0  0  0  0  0  0  0  0  0  0
  -12.1099   -1.8516   17.9210 C   0  0  0  0  0  0  0  0  0  0  0  0
  -11.0247   -2.3032   17.7088 O   0  0  0  0  0  0  0  0  0  0  0  0
  -12.9164   -2.3867   19.5193 N   0  0  0  0  0  0  0  0  0  0  0  0
  -12.4916   -3.4114   20.5904 C   0  0  0  0  0  0  0  0  0  0  0  0
  -13.0952   -3.9974   22.2145 C   0  0  0  0  0  0  0  0  0  0  0  0
  -12.4641   -3.7825   23.4965 C   0  0  0  0  0  0  0  0  0  0  0  0
  -12.7919   -4.5764   24.6399 C   0  0  0  0  0  0  0  0  0  0  0  0
  -13.8104   -5.5028   24.5651 C   0  0  0  0  0  0  0  0  0  0  0  0
  -14.4935   -5.7304   23.4275 N   0  0  0  0  0  0  0  0  0  0  0  0
  -14.1223   -5.0463   22.2973 C   0  0  0  0  0  0  0  0  0  0  0  0
  -12.6277   -1.3762   21.0572 C   0  0  0  0  0  0  0  0  0  0  0  0
  -11.2509   -1.5130   21.6163 C   0  0  0  0  0  0  0  0  0  0  0  0
  -14.1372   -0.2521   21.6385 C   0  0  0  0  0  0  0  0  0  0  0  0
  -12.1581   -0.9104   15.0727 C   0  0  0  0  0  0  0  0  0  0  0  0
  -14.0124    4.8523   12.7570 H   0  0  0  0  0  0  0  0  0  0  0  0
  -14.4987    3.3983   13.6391 H   0  0  0  0  0  0  0  0  0  0  0  0
  -14.5518    3.4315   11.8483 H   0  0  0  0  0  0  0  0  0  0  0  0
  -11.9480    2.1369   10.5768 H   0  0  0  0  0  0  0  0  0  0  0  0
  -11.5739   -0.3162   10.3427 H   0  0  0  0  0  0  0  0  0  0  0  0
  -11.6695   -1.6838   12.3236 H   0  0  0  0  0  0  0  0  0  0  0  0
  -14.6825    0.0618   15.0545 H   0  0  0  0  0  0  0  0  0  0  0  0
  -14.4873    0.9373   16.5045 H   0  0  0  0  0  0  0  0  0  0  0  0
  -11.4230   -3.6067   20.4743 H   0  0  0  0  0  0  0  0  0  0  0  0
  -13.0196   -4.2068   20.0468 H   0  0  0  0  0  0  0  0  0  0  0  0
  -11.7151   -3.0223   23.6846 H   0  0  0  0  0  0  0  0  0  0  0  0
  -12.2724   -4.4621   25.5780 H   0  0  0  0  0  0  0  0  0  0  0  0
  -14.1056   -6.1013   25.4206 H   0  0  0  0  0  0  0  0  0  0  0  0
  -14.6095   -5.4124   21.3881 H   0  0  0  0  0  0  0  0  0  0  0  0
  -12.7460   -1.9975   21.9199 H   0  0  0  0  0  0  0  0  0  0  0  0
  -10.6892   -1.7617   20.7357 H   0  0  0  0  0  0  0  0  0  0  0  0
  -10.9734   -0.7856   22.3698 H   0  0  0  0  0  0  0  0  0  0  0  0
  -10.9691   -2.4200   22.1536 H   0  0  0  0  0  0  0  0  0  0  0  0
  -13.6052    0.4760   22.2195 H   0  0  0  0  0  0  0  0  0  0  0  0
  -14.7026   -0.4891   20.7400 H   0  0  0  0  0  0  0  0  0  0  0  0
  -14.6750    0.6739   21.3269 H   0  0  0  0  0  0  0  0  0  0  0  0
  -11.6537   -1.8512   15.0508 H   0  0  0  0  0  0  0  0  0  0  0  0
  1  2  1  0
  2  3  1  0
  3  4  2  0
  4  5  1  0
  5  6  2  0
  6  7  1  0
  7  8  2  0
  8  9  1  0
  9 10  1  0
 10 11  1  0
 11 12  1  0
 12 13  2  0
 12 14  1  0
 14 15  1  0
 15 16  1  0
 16 17  2  0
 17 18  1  0
 18 19  2  0
 19 20  1  0
 20 21  2  0
 14 22  1  0
 22 23  1  0
 22 24  1  0
 11 25  2  0
  8  3  1  0
 21 16  1  0
 25  7  1  0
  1 26  1  0
  1 27  1  0
  1 28  1  0
  4 29  1  0
  5 30  1  0
  6 31  1  0
 10 32  1  0
 10 33  1  0
 15 34  1  0
 15 35  1  0
 17 36  1  0
 18 37  1  0
 19 38  1  0
 21 39  1  0
 22 40  1  0
 23 41  1  0
 23 42  1  0
 23 43  1  0
 24 44  1  0
 24 45  1  0
 24 46  1  0
 25 47  1  0
M  END
>  <Energy>  (647) 
650.58160556135238

>  <compound_id>  (647) 
14360

>  <target_id>  (647) 
1

>  <reference_id>  (647) 
7

>  <inspiration_ids>  (647) 
[91, 7]

>  <energy_score>  (647) 
556.1337483688214

>  <distance_score>  (647) 
11.468025207662288

>  <path>  (647) 
/opt/xchem-fragalysis-2/maxwin/BulkDock/SCRATCH/511023/C14360-P7/C14360-P7.minimised.mol

>  <scratch_subdir>  (647) 
/opt/xchem-fragalysis-2/maxwin/BulkDock/SCRATCH/511023/C14360-P7

>  <fragmenstein_runtime>  (647) 
19.750540018081665

>  <fragmenstein_outcome>  (647) 
too moved

>  <fragmenstein_mode>  (647) 
expansion

>  <fragmenstein_error>  (647) 


$$$$
C46585-P7
     RDKit          3D

 43 45  0  0  0  0  0  0  0  0999 V2000
  -12.9222   -0.3000   26.0041 C   0  0  0  0  0  0  0  0  0  0  0  0
  -13.4933   -1.6570   24.5940 C   0  0  0  0  0  0  0  0  0  0  0  0
  -15.5761   -1.9928   25.5035 C   0  0  0  0  0  0  0  0  0  0  0  0
  -13.7224   -0.5871   22.5186 N   0  0  0  0  0  0  0  0  0  0  0  0
  -12.8113   -2.3308   22.4218 C   0  0  0  0  0  0  0  0  0  0  0  0
  -11.0952   -2.0443   23.5650 C   0  0  0  0  0  0  0  0  0  0  0  0
  -10.7749   -1.0706   24.9871 C   0  0  0  0  0  0  0  0  0  0  0  0
   -9.6482   -0.7098   26.6003 C   0  0  0  0  0  0  0  0  0  0  0  0
   -8.1769   -1.1805   26.0256 C   0  0  0  0  0  0  0  0  0  0  0  0
   -8.4002   -2.0545   24.5474 C   0  0  0  0  0  0  0  0  0  0  0  0
   -9.7322   -2.4885   23.5183 N   0  0  0  0  0  0  0  0  0  0  0  0
  -15.2661    0.2246   21.7025 C   0  0  0  0  0  0  0  0  0  0  0  0
  -16.5494    0.1080   22.3801 O   0  0  0  0  0  0  0  0  0  0  0  0
  -15.5668    1.0899   19.9896 C   0  0  0  0  0  0  0  0  0  0  0  0
  -16.3297    0.5854   18.9512 C   0  0  0  0  0  0  0  0  0  0  0  0
  -15.9586    0.7953   17.4604 C   0  0  0  0  0  0  0  0  0  0  0  0
  -15.8415   -0.2423   16.5019 C   0  0  0  0  0  0  0  0  0  0  0  0
  -15.2042   -0.0261   15.2461 C   0  0  0  0  0  0  0  0  0  0  0  0
  -14.8982   -1.0561   14.4312 F   0  0  0  0  0  0  0  0  0  0  0  0
  -14.7950    1.2439   14.8600 C   0  0  0  0  0  0  0  0  0  0  0  0
  -14.9783    2.2994   15.7483 C   0  0  0  0  0  0  0  0  0  0  0  0
  -15.5033    2.0490   17.0341 C   0  0  0  0  0  0  0  0  0  0  0  0
  -15.4050    3.0489   17.9710 O   0  0  0  0  0  0  0  0  0  0  0  0
  -14.6965    2.4593   19.1072 C   0  0  0  0  0  0  0  0  0  0  0  0
  -13.5559    0.4997   26.1600 H   0  0  0  0  0  0  0  0  0  0  0  0
  -12.9079   -0.6655   27.0574 H   0  0  0  0  0  0  0  0  0  0  0  0
  -11.9808    0.2280   26.1117 H   0  0  0  0  0  0  0  0  0  0  0  0
  -13.9170   -1.0842   25.5365 H   0  0  0  0  0  0  0  0  0  0  0  0
  -16.1279   -2.9663   25.3370 H   0  0  0  0  0  0  0  0  0  0  0  0
  -15.6638   -2.4368   26.5927 H   0  0  0  0  0  0  0  0  0  0  0  0
  -16.3340   -1.1908   25.7825 H   0  0  0  0  0  0  0  0  0  0  0  0
  -12.1793   -1.8910   21.6032 H   0  0  0  0  0  0  0  0  0  0  0  0
  -12.8956   -3.2149   21.7589 H   0  0  0  0  0  0  0  0  0  0  0  0
  -11.4304   -0.2792   24.7627 H   0  0  0  0  0  0  0  0  0  0  0  0
   -9.8258   -0.1056   27.4686 H   0  0  0  0  0  0  0  0  0  0  0  0
   -7.2350   -1.1065   26.5401 H   0  0  0  0  0  0  0  0  0  0  0  0
   -7.5404   -2.6623   24.2320 H   0  0  0  0  0  0  0  0  0  0  0  0
  -17.1520   -0.0797   19.1159 H   0  0  0  0  0  0  0  0  0  0  0  0
  -16.1545   -1.2529   16.7540 H   0  0  0  0  0  0  0  0  0  0  0  0
  -14.3173    1.3955   13.8983 H   0  0  0  0  0  0  0  0  0  0  0  0
  -14.6324    3.2978   15.4959 H   0  0  0  0  0  0  0  0  0  0  0  0
  -13.8236    2.1605   18.5681 H   0  0  0  0  0  0  0  0  0  0  0  0
  -14.2128    3.1750   19.7956 H   0  0  0  0  0  0  0  0  0  0  0  0
  1  2  1  0
  2  3  1  0
  2  4  1  0
  4  5  1  0
  5  6  1  0
  6  7  2  0
  7  8  1  0
  8  9  2  0
  9 10  1  0
 10 11  2  0
  4 12  1  0
 12 13  2  0
 12 14  1  0
 14 15  2  0
 15 16  1  0
 16 17  2  0
 17 18  1  0
 18 19  1  0
 18 20  2  0
 20 21  1  0
 21 22  2  0
 22 23  1  0
 23 24  1  0
 11  6  1  0
 24 14  1  0
 22 16  1  0
  1 25  1  0
  1 26  1  0
  1 27  1  0
  2 28  1  0
  3 29  1  0
  3 30  1  0
  3 31  1  0
  5 32  1  0
  5 33  1  0
  7 34  1  0
  8 35  1  0
  9 36  1  0
 10 37  1  0
 15 38  1  0
 17 39  1  0
 20 40  1  0
 21 41  1  0
 24 42  1  0
 24 43  1  0
M  END
>  <Energy>  (648) 
1625.9237250086055

>  <compound_id>  (648) 
46585

>  <target_id>  (648) 
1

>  <reference_id>  (648) 
7

>  <inspiration_ids>  (648) 
[91, 7]

>  <energy_score>  (648) 
1551.17920148848

>  <distance_score>  (648) 
13.340507003015192

>  <path>  (648) 
/opt/xchem-fragalysis-2/maxwin/BulkDock/SCRATCH/511023/C46585-P7/C46585-P7.minimised.mol

>  <scratch_subdir>  (648) 
/opt/xchem-fragalysis-2/maxwin/BulkDock/SCRATCH/511023/C46585-P7

>  <fragmenstein_runtime>  (648) 
9.556180238723755

>  <fragmenstein_outcome>  (648) 
too moved

>  <fragmenstein_mode>  (648) 
expansion

>  <fragmenstein_error>  (648) 


$$$$
C45101-P7
     RDKit          3D

 36 38  0  0  0  0  0  0  0  0999 V2000
   -9.8595   -0.5855    9.2215 C   0  0  0  0  0  0  0  0  0  0  0  0
  -10.8578   -0.1359   10.2588 C   0  0  0  0  0  0  0  0  0  0  0  0
  -11.3310    1.1724   10.1976 C   0  0  0  0  0  0  0  0  0  0  0  0
  -12.2031    1.6390   11.1794 C   0  0  0  0  0  0  0  0  0  0  0  0
  -12.6160    0.8058   12.2287 C   0  0  0  0  0  0  0  0  0  0  0  0
  -12.1405   -0.4945   12.3666 C   0  0  0  0  0  0  0  0  0  0  0  0
  -11.2648   -0.9490   11.3500 C   0  0  0  0  0  0  0  0  0  0  0  0
  -12.5289   -1.2546   13.6047 C   0  0  0  0  0  0  0  0  0  0  0  0
  -13.6232   -0.8751   14.3055 C   0  0  0  0  0  0  0  0  0  0  0  0
  -14.2930   -1.4520   15.5605 C   0  0  0  0  0  0  0  0  0  0  0  0
  -15.2326   -0.8541   16.0805 O   0  0  0  0  0  0  0  0  0  0  0  0
  -13.8278   -2.6207   16.1159 O   0  0  0  0  0  0  0  0  0  0  0  0
  -13.4669   -2.4836   17.5402 C   0  0  0  0  0  0  0  0  0  0  0  0
  -11.9783   -2.7383   17.5574 C   0  0  0  0  0  0  0  0  0  0  0  0
  -14.1455   -3.2971   18.6717 C   0  0  0  0  0  0  0  0  0  0  0  0
  -13.5670   -4.2925   19.3333 N   0  0  0  0  0  0  0  0  0  0  0  0
  -14.1847   -4.5171   20.5566 C   0  0  0  0  0  0  0  0  0  0  0  0
  -15.2650   -3.7129   20.8307 C   0  0  0  0  0  0  0  0  0  0  0  0
  -15.5123   -2.6236   19.5308 S   0  0  0  0  0  0  0  0  0  0  0  0
  -14.3146    0.3943   13.8193 C   0  0  0  0  0  0  0  0  0  0  0  0
  -13.4649    1.3525   13.1496 O   0  0  0  0  0  0  0  0  0  0  0  0
  -10.2351   -0.3597    8.2179 H   0  0  0  0  0  0  0  0  0  0  0  0
   -8.9095   -0.0626    9.3717 H   0  0  0  0  0  0  0  0  0  0  0  0
   -9.6700   -1.6558    9.2623 H   0  0  0  0  0  0  0  0  0  0  0  0
  -11.0182    1.8392    9.3979 H   0  0  0  0  0  0  0  0  0  0  0  0
  -12.5723    2.6602   11.1311 H   0  0  0  0  0  0  0  0  0  0  0  0
  -10.8204   -1.9311   11.4290 H   0  0  0  0  0  0  0  0  0  0  0  0
  -11.9053   -2.0816   13.9134 H   0  0  0  0  0  0  0  0  0  0  0  0
  -13.6579   -1.4739   17.8474 H   0  0  0  0  0  0  0  0  0  0  0  0
  -11.5670   -2.6112   18.5618 H   0  0  0  0  0  0  0  0  0  0  0  0
  -11.7843   -3.7625   17.2176 H   0  0  0  0  0  0  0  0  0  0  0  0
  -11.4486   -2.0749   16.8664 H   0  0  0  0  0  0  0  0  0  0  0  0
  -13.8024   -5.2953   21.2067 H   0  0  0  0  0  0  0  0  0  0  0  0
  -15.9074   -3.7247   21.6967 H   0  0  0  0  0  0  0  0  0  0  0  0
  -15.1462    0.1362   13.1513 H   0  0  0  0  0  0  0  0  0  0  0  0
  -14.7366    0.9544   14.6598 H   0  0  0  0  0  0  0  0  0  0  0  0
  1  2  1  0
  2  3  2  0
  3  4  1  0
  4  5  2  0
  5  6  1  0
  6  7  2  0
  6  8  1  0
  8  9  2  0
  9 10  1  0
 10 11  2  0
 10 12  1  0
 12 13  1  0
 13 14  1  0
 13 15  1  0
 15 16  2  0
 16 17  1  0
 17 18  2  0
 18 19  1  0
  9 20  1  0
 20 21  1  0
  7  2  1  0
 19 15  1  0
 21  5  1  0
  1 22  1  0
  1 23  1  0
  1 24  1  0
  3 25  1  0
  4 26  1  0
  7 27  1  0
  8 28  1  0
 13 29  1  0
 14 30  1  0
 14 31  1  0
 14 32  1  0
 17 33  1  0
 18 34  1  0
 20 35  1  0
 20 36  1  0
M  END
>  <Energy>  (649) 
65.309137153204716

>  <compound_id>  (649) 
45101

>  <target_id>  (649) 
1

>  <reference_id>  (649) 
7

>  <inspiration_ids>  (649) 
[91, 7]

>  <energy_score>  (649) 
-14.171345652655077

>  <distance_score>  (649) 
11.88326934716361

>  <path>  (649) 
/opt/xchem-fragalysis-2/maxwin/BulkDock/SCRATCH/511023/C45101-P7/C45101-P7.minimised.mol

>  <scratch_subdir>  (649) 
/opt/xchem-fragalysis-2/maxwin/BulkDock/SCRATCH/511023/C45101-P7

>  <fragmenstein_runtime>  (649) 
13.313321590423584

>  <fragmenstein_outcome>  (649) 
too moved

>  <fragmenstein_mode>  (649) 
expansion

>  <fragmenstein_error>  (649) 


$$$$
C46586-P7
     RDKit          3D

 41 44  0  0  0  0  0  0  0  0999 V2000
   -5.1716   -6.3947   14.0171 C   0  0  0  0  0  0  0  0  0  0  0  0
   -4.5979   -5.4970   15.0775 C   0  0  0  0  0  0  0  0  0  0  0  0
   -3.6015   -4.5629   14.7803 C   0  0  0  0  0  0  0  0  0  0  0  0
   -3.1994   -3.6226   15.7154 C   0  0  0  0  0  0  0  0  0  0  0  0
   -3.6532   -3.7353   17.0210 C   0  0  0  0  0  0  0  0  0  0  0  0
   -4.4954   -4.7800   17.4134 C   0  0  0  0  0  0  0  0  0  0  0  0
   -5.0119   -5.6215   16.4152 C   0  0  0  0  0  0  0  0  0  0  0  0
   -4.7798   -4.9811   18.8548 C   0  0  0  0  0  0  0  0  0  0  0  0
   -4.1081   -4.2397   19.7525 C   0  0  0  0  0  0  0  0  0  0  0  0
   -4.1692   -4.2756   21.2586 C   0  0  0  0  0  0  0  0  0  0  0  0
   -3.3104   -3.6500   21.8810 O   0  0  0  0  0  0  0  0  0  0  0  0
   -5.2080   -4.9349   21.8892 O   0  0  0  0  0  0  0  0  0  0  0  0
   -5.3362   -4.4728   23.2857 C   0  0  0  0  0  0  0  0  0  0  0  0
   -6.1701   -5.1932   24.3353 C   0  0  0  0  0  0  0  0  0  0  0  0
   -6.9162   -6.4053   24.2485 C   0  0  0  0  0  0  0  0  0  0  0  0
   -7.4565   -6.5661   25.4935 C   0  0  0  0  0  0  0  0  0  0  0  0
   -7.0428   -5.5092   26.2217 N   0  0  0  0  0  0  0  0  0  0  0  0
   -6.2605   -4.6504   25.5837 N   0  0  0  0  0  0  0  0  0  0  0  0
   -7.4220   -5.5583   27.6140 C   0  0  0  0  0  0  0  0  0  0  0  0
   -7.9229   -7.0137   27.7402 C   0  0  0  0  0  0  0  0  0  0  0  0
   -8.2764   -7.4774   26.3034 C   0  0  0  0  0  0  0  0  0  0  0  0
   -3.0852   -3.2308   19.2423 C   0  0  0  0  0  0  0  0  0  0  0  0
   -3.2172   -2.7791   17.8872 O   0  0  0  0  0  0  0  0  0  0  0  0
   -6.1629   -6.7543   14.3137 H   0  0  0  0  0  0  0  0  0  0  0  0
   -5.3025   -5.8597   13.0741 H   0  0  0  0  0  0  0  0  0  0  0  0
   -4.5248   -7.2641   13.8684 H   0  0  0  0  0  0  0  0  0  0  0  0
   -3.1040   -4.5371   13.8267 H   0  0  0  0  0  0  0  0  0  0  0  0
   -2.4923   -2.8419   15.4510 H   0  0  0  0  0  0  0  0  0  0  0  0
   -5.7228   -6.3993   16.6877 H   0  0  0  0  0  0  0  0  0  0  0  0
   -5.4808   -5.7493   19.1588 H   0  0  0  0  0  0  0  0  0  0  0  0
   -5.8329   -3.5094   23.1940 H   0  0  0  0  0  0  0  0  0  0  0  0
   -4.3424   -4.3519   23.7334 H   0  0  0  0  0  0  0  0  0  0  0  0
   -7.0195   -7.0531   23.3895 H   0  0  0  0  0  0  0  0  0  0  0  0
   -8.2200   -4.8304   27.7694 H   0  0  0  0  0  0  0  0  0  0  0  0
   -6.5547   -5.3485   28.2438 H   0  0  0  0  0  0  0  0  0  0  0  0
   -8.7711   -7.1158   28.4231 H   0  0  0  0  0  0  0  0  0  0  0  0
   -7.1102   -7.6397   28.1317 H   0  0  0  0  0  0  0  0  0  0  0  0
   -9.3412   -7.3239   26.0994 H   0  0  0  0  0  0  0  0  0  0  0  0
   -8.0263   -8.5306   26.1515 H   0  0  0  0  0  0  0  0  0  0  0  0
   -2.0798   -3.6592   19.3508 H   0  0  0  0  0  0  0  0  0  0  0  0
   -3.0998   -2.3212   19.8490 H   0  0  0  0  0  0  0  0  0  0  0  0
  1  2  1  0
  2  3  2  0
  3  4  1  0
  4  5  2  0
  5  6  1  0
  6  7  2  0
  6  8  1  0
  8  9  2  0
  9 10  1  0
 10 11  2  0
 10 12  1  0
 12 13  1  0
 13 14  1  0
 14 15  1  0
 15 16  2  0
 16 17  1  0
 17 18  1  0
 17 19  1  0
 19 20  1  0
 20 21  1  0
  9 22  1  0
 22 23  1  0
  7  2  1  0
 18 14  2  0
 23  5  1  0
 21 16  1  0
  1 24  1  0
  1 25  1  0
  1 26  1  0
  3 27  1  0
  4 28  1  0
  7 29  1  0
  8 30  1  0
 13 31  1  0
 13 32  1  0
 15 33  1  0
 19 34  1  0
 19 35  1  0
 20 36  1  0
 20 37  1  0
 21 38  1  0
 21 39  1  0
 22 40  1  0
 22 41  1  0
M  END
>  <Energy>  (650) 
61.546389479548381

>  <compound_id>  (650) 
46586

>  <target_id>  (650) 
1

>  <reference_id>  (650) 
7

>  <inspiration_ids>  (650) 
[91, 7]

>  <energy_score>  (650) 
-23.48160191183871

>  <distance_score>  (650) 
11.952578424930365

>  <path>  (650) 
/opt/xchem-fragalysis-2/maxwin/BulkDock/SCRATCH/511023/C46586-P7/C46586-P7.minimised.mol

>  <scratch_subdir>  (650) 
/opt/xchem-fragalysis-2/maxwin/BulkDock/SCRATCH/511023/C46586-P7

>  <fragmenstein_runtime>  (650) 
13.358437061309814

>  <fragmenstein_outcome>  (650) 
too moved

>  <fragmenstein_mode>  (650) 
expansion

>  <fragmenstein_error>  (650) 


$$$$
C17167-P7
     RDKit          3D

 43 45  0  0  0  0  0  0  0  0999 V2000
   -7.3648   -0.2224   10.4779 C   0  0  0  0  0  0  0  0  0  0  0  0
   -6.9648   -0.7623   11.9045 C   0  0  0  0  0  0  0  0  0  0  0  0
   -5.8674   -0.6426   12.6972 C   0  0  0  0  0  0  0  0  0  0  0  0
   -5.8664   -1.1102   14.1813 C   0  0  0  0  0  0  0  0  0  0  0  0
   -6.9718   -1.9768   14.9373 C   0  0  0  0  0  0  0  0  0  0  0  0
   -7.9299   -2.7123   14.3912 C   0  0  0  0  0  0  0  0  0  0  0  0
   -8.1160   -1.5714   12.9391 C   0  0  0  0  0  0  0  0  0  0  0  0
   -9.4756   -3.3102   15.5873 C   0  0  0  0  0  0  0  0  0  0  0  0
  -10.3096   -2.5452   16.8194 C   0  0  0  0  0  0  0  0  0  0  0  0
  -11.5874   -2.0131   18.1588 C   0  0  0  0  0  0  0  0  0  0  0  0
  -12.3832   -1.3386   17.6680 O   0  0  0  0  0  0  0  0  0  0  0  0
  -11.6478   -2.2370   19.9347 N   0  0  0  0  0  0  0  0  0  0  0  0
  -12.7588   -1.4250   21.3077 C   0  0  0  0  0  0  0  0  0  0  0  0
  -14.5269   -0.2754   21.8153 C   0  0  0  0  0  0  0  0  0  0  0  0
  -16.4031   -0.2086   22.9023 C   0  0  0  0  0  0  0  0  0  0  0  0
  -17.3133    0.2334   24.3966 C   0  0  0  0  0  0  0  0  0  0  0  0
  -17.4871   -0.6994   25.4903 C   0  0  0  0  0  0  0  0  0  0  0  0
  -18.0337   -0.2972   26.7039 C   0  0  0  0  0  0  0  0  0  0  0  0
  -18.5310    0.9292   26.8927 N   0  0  0  0  0  0  0  0  0  0  0  0
  -18.5733    1.7198   25.7937 C   0  0  0  0  0  0  0  0  0  0  0  0
  -18.0267    1.4081   24.5387 C   0  0  0  0  0  0  0  0  0  0  0  0
   -9.4156   -1.3448   17.1077 C   0  0  0  0  0  0  0  0  0  0  0  0
   -7.8128   -1.2954   16.1847 O   0  0  0  0  0  0  0  0  0  0  0  0
   -8.4601   -0.2635   10.3497 H   0  0  0  0  0  0  0  0  0  0  0  0
   -6.8746   -0.7721    9.6640 H   0  0  0  0  0  0  0  0  0  0  0  0
   -7.2258    0.8004   10.2311 H   0  0  0  0  0  0  0  0  0  0  0  0
   -4.9246   -0.4640   12.1865 H   0  0  0  0  0  0  0  0  0  0  0  0
   -5.0298   -0.7532   14.7548 H   0  0  0  0  0  0  0  0  0  0  0  0
   -9.1385   -1.4132   12.4692 H   0  0  0  0  0  0  0  0  0  0  0  0
   -9.7256   -4.2804   15.1855 H   0  0  0  0  0  0  0  0  0  0  0  0
  -10.8396   -2.7804   20.2165 H   0  0  0  0  0  0  0  0  0  0  0  0
  -11.9539   -0.8008   21.7004 H   0  0  0  0  0  0  0  0  0  0  0  0
  -12.6128   -2.2670   22.0293 H   0  0  0  0  0  0  0  0  0  0  0  0
  -14.0320    0.6279   22.0508 H   0  0  0  0  0  0  0  0  0  0  0  0
  -14.9263   -0.0513   20.8181 H   0  0  0  0  0  0  0  0  0  0  0  0
  -16.9560   -1.1417   23.0323 H   0  0  0  0  0  0  0  0  0  0  0  0
  -17.0746    0.4325   22.2359 H   0  0  0  0  0  0  0  0  0  0  0  0
  -17.1766   -1.7383   25.4246 H   0  0  0  0  0  0  0  0  0  0  0  0
  -18.1051   -0.9724   27.5510 H   0  0  0  0  0  0  0  0  0  0  0  0
  -19.0940    2.6639   25.9362 H   0  0  0  0  0  0  0  0  0  0  0  0
  -18.1583    2.0968   23.7115 H   0  0  0  0  0  0  0  0  0  0  0  0
   -9.1327   -1.1958   18.1648 H   0  0  0  0  0  0  0  0  0  0  0  0
  -10.0261   -0.5056   16.8864 H   0  0  0  0  0  0  0  0  0  0  0  0
  1  2  1  0
  2  3  2  0
  3  4  1  0
  4  5  2  0
  5  6  1  0
  6  7  2  0
  6  8  1  0
  8  9  2  0
  9 10  1  0
 10 11  2  0
 10 12  1  0
 12 13  1  0
 13 14  1  0
 14 15  1  0
 15 16  1  0
 16 17  2  0
 17 18  1  0
 18 19  2  0
 19 20  1  0
 20 21  2  0
  9 22  1  0
 22 23  1  0
  7  2  1  0
 21 16  1  0
 23  5  1  0
  1 24  1  0
  1 25  1  0
  1 26  1  0
  3 27  1  0
  4 28  1  0
  7 29  1  0
  8 30  1  0
 12 31  1  0
 13 32  1  0
 13 33  1  0
 14 34  1  0
 14 35  1  0
 15 36  1  0
 15 37  1  0
 17 38  1  0
 18 39  1  0
 20 40  1  0
 21 41  1  0
 22 42  1  0
 22 43  1  0
M  END
>  <Energy>  (651) 
1010.9677522101474

>  <compound_id>  (651) 
17167

>  <target_id>  (651) 
1

>  <reference_id>  (651) 
7

>  <inspiration_ids>  (651) 
[91, 7]

>  <energy_score>  (651) 
968.5505975528486

>  <distance_score>  (651) 
10.296478537895926

>  <path>  (651) 
/opt/xchem-fragalysis-2/maxwin/BulkDock/SCRATCH/511023/C17167-P7/C17167-P7.minimised.mol

>  <scratch_subdir>  (651) 
/opt/xchem-fragalysis-2/maxwin/BulkDock/SCRATCH/511023/C17167-P7

>  <fragmenstein_runtime>  (651) 
17.655040979385376

>  <fragmenstein_outcome>  (651) 
too moved

>  <fragmenstein_mode>  (651) 
expansion

>  <fragmenstein_error>  (651) 


$$$$
C46587-P7
     RDKit          3D

 42 45  0  0  0  0  0  0  0  0999 V2000
   -7.4992   -1.7574    7.2069 C   0  0  0  0  0  0  0  0  0  0  0  0
   -8.2355   -0.6361    7.8870 C   0  0  0  0  0  0  0  0  0  0  0  0
   -7.8151    0.6820    7.7123 C   0  0  0  0  0  0  0  0  0  0  0  0
   -8.5045    1.7182    8.3439 C   0  0  0  0  0  0  0  0  0  0  0  0
   -9.5925    1.4470    9.1844 C   0  0  0  0  0  0  0  0  0  0  0  0
  -10.0429    0.1421    9.3704 C   0  0  0  0  0  0  0  0  0  0  0  0
   -9.3663   -0.8853    8.6904 C   0  0  0  0  0  0  0  0  0  0  0  0
  -11.2253   -0.0977   10.2219 C   0  0  0  0  0  0  0  0  0  0  0  0
  -11.6880    0.9066   10.9904 C   0  0  0  0  0  0  0  0  0  0  0  0
  -13.0158    0.8425   11.7543 C   0  0  0  0  0  0  0  0  0  0  0  0
  -13.9681    0.4442   11.1481 O   0  0  0  0  0  0  0  0  0  0  0  0
  -12.9064    1.3793   13.0874 N   0  0  0  0  0  0  0  0  0  0  0  0
  -13.9341    1.6998   14.0821 C   0  0  0  0  0  0  0  0  0  0  0  0
  -14.5414    0.7093   15.0534 C   0  0  0  0  0  0  0  0  0  0  0  0
  -14.8345   -0.6811   14.9248 C   0  0  0  0  0  0  0  0  0  0  0  0
  -15.8072   -0.9045   15.8694 C   0  0  0  0  0  0  0  0  0  0  0  0
  -15.8969    0.2225   16.6114 N   0  0  0  0  0  0  0  0  0  0  0  0
  -15.1711    1.2234   16.1368 N   0  0  0  0  0  0  0  0  0  0  0  0
  -17.1196    0.3173   17.3924 C   0  0  0  0  0  0  0  0  0  0  0  0
  -17.9281   -0.8773   16.8458 C   0  0  0  0  0  0  0  0  0  0  0  0
  -16.8916   -1.8435   16.2100 C   0  0  0  0  0  0  0  0  0  0  0  0
  -11.0467    2.2711   10.8951 C   0  0  0  0  0  0  0  0  0  0  0  0
  -10.2017    2.5287    9.7581 O   0  0  0  0  0  0  0  0  0  0  0  0
   -7.8742   -2.7343    7.5291 H   0  0  0  0  0  0  0  0  0  0  0  0
   -7.6267   -1.6851    6.1223 H   0  0  0  0  0  0  0  0  0  0  0  0
   -6.4326   -1.7111    7.4490 H   0  0  0  0  0  0  0  0  0  0  0  0
   -6.9626    0.9106    7.0791 H   0  0  0  0  0  0  0  0  0  0  0  0
   -8.1880    2.7475    8.1972 H   0  0  0  0  0  0  0  0  0  0  0  0
   -9.6995   -1.9105    8.8029 H   0  0  0  0  0  0  0  0  0  0  0  0
  -11.7087   -1.0641   10.1794 H   0  0  0  0  0  0  0  0  0  0  0  0
  -11.9584    1.6914   13.2404 H   0  0  0  0  0  0  0  0  0  0  0  0
  -14.7692    2.1180   13.5048 H   0  0  0  0  0  0  0  0  0  0  0  0
  -13.5091    2.5280   14.6629 H   0  0  0  0  0  0  0  0  0  0  0  0
  -14.5584   -1.3308   14.1052 H   0  0  0  0  0  0  0  0  0  0  0  0
  -17.6101    1.2742   17.2000 H   0  0  0  0  0  0  0  0  0  0  0  0
  -16.8464    0.2178   18.4440 H   0  0  0  0  0  0  0  0  0  0  0  0
  -18.5476   -1.3592   17.6071 H   0  0  0  0  0  0  0  0  0  0  0  0
  -18.6065   -0.5170   16.0606 H   0  0  0  0  0  0  0  0  0  0  0  0
  -16.5640   -2.5926   16.9351 H   0  0  0  0  0  0  0  0  0  0  0  0
  -17.3085   -2.3489   15.3346 H   0  0  0  0  0  0  0  0  0  0  0  0
  -10.4520    2.4721   11.7918 H   0  0  0  0  0  0  0  0  0  0  0  0
  -11.8308    3.0364   10.8571 H   0  0  0  0  0  0  0  0  0  0  0  0
  1  2  1  0
  2  3  2  0
  3  4  1  0
  4  5  2  0
  5  6  1  0
  6  7  2  0
  6  8  1  0
  8  9  2  0
  9 10  1  0
 10 11  2  0
 10 12  1  0
 12 13  1  0
 13 14  1  0
 14 15  1  0
 15 16  2  0
 16 17  1  0
 17 18  1  0
 17 19  1  0
 19 20  1  0
 20 21  1  0
  9 22  1  0
 22 23  1  0
  7  2  1  0
 18 14  2  0
 23  5  1  0
 21 16  1  0
  1 24  1  0
  1 25  1  0
  1 26  1  0
  3 27  1  0
  4 28  1  0
  7 29  1  0
  8 30  1  0
 12 31  1  0
 13 32  1  0
 13 33  1  0
 15 34  1  0
 19 35  1  0
 19 36  1  0
 20 37  1  0
 20 38  1  0
 21 39  1  0
 21 40  1  0
 22 41  1  0
 22 42  1  0
M  END
>  <Energy>  (652) 
52.433492052524642

>  <compound_id>  (652) 
46587

>  <target_id>  (652) 
1

>  <reference_id>  (652) 
7

>  <inspiration_ids>  (652) 
[91, 7]

>  <energy_score>  (652) 
-8.29034745545863

>  <distance_score>  (652) 
13.171008635888308

>  <path>  (652) 
/opt/xchem-fragalysis-2/maxwin/BulkDock/SCRATCH/511023/C46587-P7/C46587-P7.minimised.mol

>  <scratch_subdir>  (652) 
/opt/xchem-fragalysis-2/maxwin/BulkDock/SCRATCH/511023/C46587-P7

>  <fragmenstein_runtime>  (652) 
23.036813020706177

>  <fragmenstein_outcome>  (652) 
too moved

>  <fragmenstein_mode>  (652) 
expansion

>  <fragmenstein_error>  (652) 


$$$$
C46588-P7
     RDKit          3D

 34 36  0  0  0  0  0  0  0  0999 V2000
   -3.7543   -3.8729   16.2340 C   0  0  0  0  0  0  0  0  0  0  0  0
   -4.1100   -4.4536   17.5829 C   0  0  0  0  0  0  0  0  0  0  0  0
   -3.7422   -5.7426   17.9214 C   0  0  0  0  0  0  0  0  0  0  0  0
   -4.0287   -6.2096   19.2070 C   0  0  0  0  0  0  0  0  0  0  0  0
   -4.7865   -5.4454   20.1165 C   0  0  0  0  0  0  0  0  0  0  0  0
   -5.2850   -4.1943   19.8247 C   0  0  0  0  0  0  0  0  0  0  0  0
   -4.7658   -3.6814   18.5783 C   0  0  0  0  0  0  0  0  0  0  0  0
   -6.4046   -3.5405   20.9531 C   0  0  0  0  0  0  0  0  0  0  0  0
   -6.6527   -3.7385   22.2464 C   0  0  0  0  0  0  0  0  0  0  0  0
   -7.6412   -3.2943   23.9785 C   0  0  0  0  0  0  0  0  0  0  0  0
   -8.3030   -4.2122   24.2988 O   0  0  0  0  0  0  0  0  0  0  0  0
   -7.5061   -1.9335   24.9790 N   0  0  0  0  0  0  0  0  0  0  0  0
   -8.0365   -1.6485   26.4114 C   0  0  0  0  0  0  0  0  0  0  0  0
   -8.3445   -0.3504   26.9670 C   0  0  0  0  0  0  0  0  0  0  0  0
   -8.2751    0.0009   28.3203 C   0  0  0  0  0  0  0  0  0  0  0  0
   -7.6164   -0.9032   29.1122 C   0  0  0  0  0  0  0  0  0  0  0  0
   -7.4569   -2.2060   28.6745 C   0  0  0  0  0  0  0  0  0  0  0  0
   -7.6495   -2.5584   27.3808 N   0  0  0  0  0  0  0  0  0  0  0  0
   -6.4097   -5.5478   21.6678 C   0  0  0  0  0  0  0  0  0  0  0  0
   -5.0604   -5.9629   21.3475 O   0  0  0  0  0  0  0  0  0  0  0  0
   -3.7221   -4.6564   15.4699 H   0  0  0  0  0  0  0  0  0  0  0  0
   -4.5062   -3.1405   15.9221 H   0  0  0  0  0  0  0  0  0  0  0  0
   -2.7773   -3.3832   16.2858 H   0  0  0  0  0  0  0  0  0  0  0  0
   -3.1947   -6.3749   17.2285 H   0  0  0  0  0  0  0  0  0  0  0  0
   -3.6937   -7.1995   19.5080 H   0  0  0  0  0  0  0  0  0  0  0  0
   -4.7391   -2.6265   18.3478 H   0  0  0  0  0  0  0  0  0  0  0  0
   -7.1385   -2.7945   20.6851 H   0  0  0  0  0  0  0  0  0  0  0  0
   -6.8692   -1.3343   24.5895 H   0  0  0  0  0  0  0  0  0  0  0  0
   -8.0803    0.4790   26.3193 H   0  0  0  0  0  0  0  0  0  0  0  0
   -8.3795    1.0302   28.6440 H   0  0  0  0  0  0  0  0  0  0  0  0
   -7.1867   -0.5830   30.0623 H   0  0  0  0  0  0  0  0  0  0  0  0
   -7.0346   -2.9782   29.3069 H   0  0  0  0  0  0  0  0  0  0  0  0
   -6.9180   -5.7929   20.7129 H   0  0  0  0  0  0  0  0  0  0  0  0
   -6.8628   -6.3105   22.3324 H   0  0  0  0  0  0  0  0  0  0  0  0
  1  2  1  0
  2  3  2  0
  3  4  1  0
  4  5  2  0
  5  6  1  0
  6  7  2  0
  6  8  1  0
  8  9  2  0
  9 10  1  0
 10 11  2  0
 10 12  1  0
 12 13  1  0
 13 14  2  0
 14 15  1  0
 15 16  2  0
 16 17  1  0
 17 18  2  0
  9 19  1  0
 19 20  1  0
  7  2  1  0
 18 13  1  0
 20  5  1  0
  1 21  1  0
  1 22  1  0
  1 23  1  0
  3 24  1  0
  4 25  1  0
  7 26  1  0
  8 27  1  0
 12 28  1  0
 14 29  1  0
 15 30  1  0
 16 31  1  0
 17 32  1  0
 19 33  1  0
 19 34  1  0
M  END
>  <Energy>  (653) 
325.17114830436816

>  <compound_id>  (653) 
46588

>  <target_id>  (653) 
1

>  <reference_id>  (653) 
7

>  <inspiration_ids>  (653) 
[91, 7]

>  <energy_score>  (653) 
290.1439252560045

>  <distance_score>  (653) 
12.192714720237399

>  <path>  (653) 
/opt/xchem-fragalysis-2/maxwin/BulkDock/SCRATCH/511023/C46588-P7/C46588-P7.minimised.mol

>  <scratch_subdir>  (653) 
/opt/xchem-fragalysis-2/maxwin/BulkDock/SCRATCH/511023/C46588-P7

>  <fragmenstein_runtime>  (653) 
9.179973363876343

>  <fragmenstein_outcome>  (653) 
too moved

>  <fragmenstein_mode>  (653) 
expansion

>  <fragmenstein_error>  (653) 


$$$$
C14361-P7
     RDKit          3D

 34 36  0  0  0  0  0  0  0  0999 V2000
  -13.2427    1.5671   11.1796 C   0  0  0  0  0  0  0  0  0  0  0  0
  -12.6206    0.3692   11.8173 C   0  0  0  0  0  0  0  0  0  0  0  0
  -11.7089   -0.3502   11.0676 C   0  0  0  0  0  0  0  0  0  0  0  0
  -11.0220   -1.3734   11.6891 C   0  0  0  0  0  0  0  0  0  0  0  0
  -11.2116   -1.6897   13.0540 C   0  0  0  0  0  0  0  0  0  0  0  0
  -12.1894   -1.0621   13.7807 C   0  0  0  0  0  0  0  0  0  0  0  0
  -12.8741   -0.0003   13.1615 C   0  0  0  0  0  0  0  0  0  0  0  0
  -12.3600   -1.4614   15.1821 C   0  0  0  0  0  0  0  0  0  0  0  0
  -11.6415   -2.4542   15.7660 C   0  0  0  0  0  0  0  0  0  0  0  0
  -11.3770   -2.5017   17.2973 C   0  0  0  0  0  0  0  0  0  0  0  0
  -10.6048   -1.6425   17.6265 O   0  0  0  0  0  0  0  0  0  0  0  0
  -12.0475   -3.5542   18.0978 N   0  0  0  0  0  0  0  0  0  0  0  0
  -12.0512   -3.8068   19.5416 C   0  0  0  0  0  0  0  0  0  0  0  0
  -11.3150   -3.1039   20.4975 C   0  0  0  0  0  0  0  0  0  0  0  0
  -11.3488   -3.4010   21.8779 C   0  0  0  0  0  0  0  0  0  0  0  0
  -12.1372   -4.4459   22.3027 C   0  0  0  0  0  0  0  0  0  0  0  0
  -12.8867   -5.1695   21.4437 N   0  0  0  0  0  0  0  0  0  0  0  0
  -12.8236   -4.8275   20.1084 C   0  0  0  0  0  0  0  0  0  0  0  0
  -10.6207   -3.1689   14.9408 C   0  0  0  0  0  0  0  0  0  0  0  0
  -10.3641   -2.6163   13.6314 O   0  0  0  0  0  0  0  0  0  0  0  0
  -13.5486    1.3507   10.1505 H   0  0  0  0  0  0  0  0  0  0  0  0
  -14.1402    1.8779   11.7248 H   0  0  0  0  0  0  0  0  0  0  0  0
  -12.5362    2.4032   11.1758 H   0  0  0  0  0  0  0  0  0  0  0  0
  -11.4962   -0.1087   10.0303 H   0  0  0  0  0  0  0  0  0  0  0  0
  -10.3086   -1.9024   11.0792 H   0  0  0  0  0  0  0  0  0  0  0  0
  -13.5920    0.5804   13.7382 H   0  0  0  0  0  0  0  0  0  0  0  0
  -12.9998   -0.7895   15.7164 H   0  0  0  0  0  0  0  0  0  0  0  0
  -12.7020   -4.0571   17.5051 H   0  0  0  0  0  0  0  0  0  0  0  0
  -10.5971   -2.3751   20.1670 H   0  0  0  0  0  0  0  0  0  0  0  0
  -10.7465   -2.8287   22.5763 H   0  0  0  0  0  0  0  0  0  0  0  0
  -12.1967   -4.7277   23.3477 H   0  0  0  0  0  0  0  0  0  0  0  0
  -13.4468   -5.4551   19.4754 H   0  0  0  0  0  0  0  0  0  0  0  0
   -9.6526   -3.1850   15.4525 H   0  0  0  0  0  0  0  0  0  0  0  0
  -10.9184   -4.2154   14.8161 H   0  0  0  0  0  0  0  0  0  0  0  0
  1  2  1  0
  2  3  2  0
  3  4  1  0
  4  5  2  0
  5  6  1  0
  6  7  2  0
  6  8  1  0
  8  9  2  0
  9 10  1  0
 10 11  2  0
 10 12  1  0
 12 13  1  0
 13 14  2  0
 14 15  1  0
 15 16  2  0
 16 17  1  0
 17 18  2  0
  9 19  1  0
 19 20  1  0
  7  2  1  0
 18 13  1  0
 20  5  1  0
  1 21  1  0
  1 22  1  0
  1 23  1  0
  3 24  1  0
  4 25  1  0
  7 26  1  0
  8 27  1  0
 12 28  1  0
 14 29  1  0
 15 30  1  0
 16 31  1  0
 18 32  1  0
 19 33  1  0
 19 34  1  0
M  END
>  <Energy>  (654) 
69.535913112211631

>  <compound_id>  (654) 
14361

>  <target_id>  (654) 
1

>  <reference_id>  (654) 
7

>  <inspiration_ids>  (654) 
[91, 7]

>  <energy_score>  (654) 
-5.083652898647188

>  <distance_score>  (654) 
12.365470218018107

>  <path>  (654) 
/opt/xchem-fragalysis-2/maxwin/BulkDock/SCRATCH/511023/C14361-P7/C14361-P7.minimised.mol

>  <scratch_subdir>  (654) 
/opt/xchem-fragalysis-2/maxwin/BulkDock/SCRATCH/511023/C14361-P7

>  <fragmenstein_runtime>  (654) 
10.085174083709717

>  <fragmenstein_outcome>  (654) 
too moved

>  <fragmenstein_mode>  (654) 
expansion

>  <fragmenstein_error>  (654) 


$$$$
C44386-P7
     RDKit          3D

 31 33  0  0  0  0  0  0  0  0999 V2000
  -10.3430   -0.5130    9.0410 C   0  0  0  0  0  0  0  0  0  0  0  0
  -11.0303   -0.3137   10.3665 C   0  0  0  0  0  0  0  0  0  0  0  0
  -11.7396    0.8485   10.6452 C   0  0  0  0  0  0  0  0  0  0  0  0
  -12.3447    1.0077   11.8982 C   0  0  0  0  0  0  0  0  0  0  0  0
  -12.2365    0.0136   12.8822 C   0  0  0  0  0  0  0  0  0  0  0  0
  -11.5088   -1.1472   12.6642 C   0  0  0  0  0  0  0  0  0  0  0  0
  -10.9641   -1.2976   11.3731 C   0  0  0  0  0  0  0  0  0  0  0  0
  -11.2122   -2.0407   13.8452 C   0  0  0  0  0  0  0  0  0  0  0  0
  -11.9080   -1.9135   14.9909 C   0  0  0  0  0  0  0  0  0  0  0  0
  -11.9479   -2.9571   16.1752 C   0  0  0  0  0  0  0  0  0  0  0  0
  -12.3246   -4.0612   15.8693 O   0  0  0  0  0  0  0  0  0  0  0  0
  -11.6116   -2.3806   17.5066 N   0  0  0  0  0  0  0  0  0  0  0  0
  -11.7318   -2.9369   18.8401 C   0  0  0  0  0  0  0  0  0  0  0  0
  -10.9094   -2.6488   19.9545 C   0  0  0  0  0  0  0  0  0  0  0  0
  -11.6192   -2.8316   21.1044 C   0  0  0  0  0  0  0  0  0  0  0  0
  -12.7695   -3.4080   20.7474 O   0  0  0  0  0  0  0  0  0  0  0  0
  -12.8585   -3.4503   19.3808 N   0  0  0  0  0  0  0  0  0  0  0  0
  -13.1006   -0.9904   14.7987 C   0  0  0  0  0  0  0  0  0  0  0  0
  -12.8007    0.2446   14.1050 O   0  0  0  0  0  0  0  0  0  0  0  0
   -9.5613   -1.2746    9.0986 H   0  0  0  0  0  0  0  0  0  0  0  0
  -11.0746   -0.8176    8.2864 H   0  0  0  0  0  0  0  0  0  0  0  0
   -9.8654    0.4182    8.7187 H   0  0  0  0  0  0  0  0  0  0  0  0
  -11.8228    1.6390    9.9042 H   0  0  0  0  0  0  0  0  0  0  0  0
  -12.8948    1.9187   12.1186 H   0  0  0  0  0  0  0  0  0  0  0  0
  -10.4169   -2.1901   11.1376 H   0  0  0  0  0  0  0  0  0  0  0  0
  -10.4087   -2.7669   13.7820 H   0  0  0  0  0  0  0  0  0  0  0  0
  -11.2529   -1.4593   17.3834 H   0  0  0  0  0  0  0  0  0  0  0  0
   -9.8986   -2.3101   19.8570 H   0  0  0  0  0  0  0  0  0  0  0  0
  -11.4410   -2.6833   22.1592 H   0  0  0  0  0  0  0  0  0  0  0  0
  -13.5324   -0.6534   15.7218 H   0  0  0  0  0  0  0  0  0  0  0  0
  -13.9092   -1.5153   14.2694 H   0  0  0  0  0  0  0  0  0  0  0  0
  1  2  1  0
  2  3  2  0
  3  4  1  0
  4  5  2  0
  5  6  1  0
  6  7  2  0
  6  8  1  0
  8  9  2  0
  9 10  1  0
 10 11  2  0
 10 12  1  0
 12 13  1  0
 13 14  1  0
 14 15  2  0
 15 16  1  0
 16 17  1  0
  9 18  1  0
 18 19  1  0
  7  2  1  0
 17 13  2  0
 19  5  1  0
  1 20  1  0
  1 21  1  0
  1 22  1  0
  3 23  1  0
  4 24  1  0
  7 25  1  0
  8 26  1  0
 12 27  1  0
 14 28  1  0
 15 29  1  0
 18 30  1  0
 18 31  1  0
M  END
>  <Energy>  (655) 
39.072105446784413

>  <compound_id>  (655) 
44386

>  <target_id>  (655) 
1

>  <reference_id>  (655) 
7

>  <inspiration_ids>  (655) 
[91, 7]

>  <energy_score>  (655) 
2.386215220835595

>  <distance_score>  (655) 
11.972850940461623

>  <path>  (655) 
/opt/xchem-fragalysis-2/maxwin/BulkDock/SCRATCH/511023/C44386-P7/C44386-P7.minimised.mol

>  <scratch_subdir>  (655) 
/opt/xchem-fragalysis-2/maxwin/BulkDock/SCRATCH/511023/C44386-P7

>  <fragmenstein_runtime>  (655) 
8.998380661010742

>  <fragmenstein_outcome>  (655) 
too moved

>  <fragmenstein_mode>  (655) 
expansion

>  <fragmenstein_error>  (655) 


$$$$
C17168-P7
     RDKit          3D

 34 36  0  0  0  0  0  0  0  0999 V2000
  -14.5830   -0.1880   10.3459 C   0  0  0  0  0  0  0  0  0  0  0  0
  -14.1098    0.5650   11.5621 C   0  0  0  0  0  0  0  0  0  0  0  0
  -13.0560    1.4772   11.3727 C   0  0  0  0  0  0  0  0  0  0  0  0
  -12.4133    2.0090   12.4720 C   0  0  0  0  0  0  0  0  0  0  0  0
  -12.8251    1.5577   13.7274 C   0  0  0  0  0  0  0  0  0  0  0  0
  -13.9660    0.7808   14.0081 C   0  0  0  0  0  0  0  0  0  0  0  0
  -14.6199    0.2880   12.8715 C   0  0  0  0  0  0  0  0  0  0  0  0
  -13.9189    0.0996   15.4426 C   0  0  0  0  0  0  0  0  0  0  0  0
  -12.7446   -0.6061   15.8563 C   0  0  0  0  0  0  0  0  0  0  0  0
  -11.7700   -1.5547   17.3072 C   0  0  0  0  0  0  0  0  0  0  0  0
  -10.6720   -1.9271   17.0514 O   0  0  0  0  0  0  0  0  0  0  0  0
  -12.5851   -1.7645   18.5120 N   0  0  0  0  0  0  0  0  0  0  0  0
  -12.3484   -2.5704   19.7174 C   0  0  0  0  0  0  0  0  0  0  0  0
  -13.5741   -2.9562   20.3619 C   0  0  0  0  0  0  0  0  0  0  0  0
  -13.6602   -3.2733   21.7133 C   0  0  0  0  0  0  0  0  0  0  0  0
  -12.5937   -3.2424   22.5069 N   0  0  0  0  0  0  0  0  0  0  0  0
  -11.4633   -2.7901   21.9124 C   0  0  0  0  0  0  0  0  0  0  0  0
  -11.2642   -2.6119   20.5290 C   0  0  0  0  0  0  0  0  0  0  0  0
  -11.8719   -0.0597   14.8270 C   0  0  0  0  0  0  0  0  0  0  0  0
  -11.8277    1.3848   14.6570 O   0  0  0  0  0  0  0  0  0  0  0  0
  -13.7550   -0.7427    9.8939 H   0  0  0  0  0  0  0  0  0  0  0  0
  -14.9962    0.5088    9.6096 H   0  0  0  0  0  0  0  0  0  0  0  0
  -15.3677   -0.9048   10.6086 H   0  0  0  0  0  0  0  0  0  0  0  0
  -12.6792    1.6908   10.3746 H   0  0  0  0  0  0  0  0  0  0  0  0
  -11.4958    2.5766   12.3555 H   0  0  0  0  0  0  0  0  0  0  0  0
  -15.4268   -0.4312   12.9844 H   0  0  0  0  0  0  0  0  0  0  0  0
  -14.8228    0.2208   16.0319 H   0  0  0  0  0  0  0  0  0  0  0  0
  -13.4824   -1.3883   18.3626 H   0  0  0  0  0  0  0  0  0  0  0  0
  -14.5081   -2.9415   19.8068 H   0  0  0  0  0  0  0  0  0  0  0  0
  -14.6020   -3.5427   22.1787 H   0  0  0  0  0  0  0  0  0  0  0  0
  -10.6518   -2.5866   22.6085 H   0  0  0  0  0  0  0  0  0  0  0  0
  -10.2911   -2.3893   20.1247 H   0  0  0  0  0  0  0  0  0  0  0  0
  -11.0308   -0.3295   15.3562 H   0  0  0  0  0  0  0  0  0  0  0  0
  -12.0917   -0.5682   13.8733 H   0  0  0  0  0  0  0  0  0  0  0  0
  1  2  1  0
  2  3  2  0
  3  4  1  0
  4  5  2  0
  5  6  1  0
  6  7  2  0
  6  8  1  0
  8  9  2  0
  9 10  1  0
 10 11  2  0
 10 12  1  0
 12 13  1  0
 13 14  2  0
 14 15  1  0
 15 16  2  0
 16 17  1  0
 17 18  2  0
  9 19  1  0
 19 20  1  0
  7  2  1  0
 18 13  1  0
 20  5  1  0
  1 21  1  0
  1 22  1  0
  1 23  1  0
  3 24  1  0
  4 25  1  0
  7 26  1  0
  8 27  1  0
 12 28  1  0
 14 29  1  0
 15 30  1  0
 17 31  1  0
 18 32  1  0
 19 33  1  0
 19 34  1  0
M  END
>  <Energy>  (656) 
188.77647753260848

>  <compound_id>  (656) 
17168

>  <target_id>  (656) 
1

>  <reference_id>  (656) 
7

>  <inspiration_ids>  (656) 
[91, 7]

>  <energy_score>  (656) 
153.41847739694794

>  <distance_score>  (656) 
12.870940660673293

>  <path>  (656) 
/opt/xchem-fragalysis-2/maxwin/BulkDock/SCRATCH/511023/C17168-P7/C17168-P7.minimised.mol

>  <scratch_subdir>  (656) 
/opt/xchem-fragalysis-2/maxwin/BulkDock/SCRATCH/511023/C17168-P7

>  <fragmenstein_runtime>  (656) 
13.540226459503174

>  <fragmenstein_outcome>  (656) 
too moved

>  <fragmenstein_mode>  (656) 
expansion

>  <fragmenstein_error>  (656) 


$$$$
C17169-P7
     RDKit          3D

 43 45  0  0  0  0  0  0  0  0999 V2000
  -13.5221   -3.5978   20.5431 C   0  0  0  0  0  0  0  0  0  0  0  0
  -12.8462   -3.3159   21.8603 C   0  0  0  0  0  0  0  0  0  0  0  0
  -11.5831   -2.7330   21.8379 C   0  0  0  0  0  0  0  0  0  0  0  0
  -10.9029   -2.5021   23.0411 C   0  0  0  0  0  0  0  0  0  0  0  0
  -11.5009   -2.7422   24.2723 C   0  0  0  0  0  0  0  0  0  0  0  0
  -12.8031   -3.2391   24.3630 C   0  0  0  0  0  0  0  0  0  0  0  0
  -13.4491   -3.5764   23.1323 C   0  0  0  0  0  0  0  0  0  0  0  0
  -13.4140   -3.2354   25.7557 C   0  0  0  0  0  0  0  0  0  0  0  0
  -12.8738   -2.4465   26.7355 C   0  0  0  0  0  0  0  0  0  0  0  0
  -13.1425   -2.3602   28.3337 C   0  0  0  0  0  0  0  0  0  0  0  0
  -13.8781   -1.6039   28.8789 O   0  0  0  0  0  0  0  0  0  0  0  0
  -12.2355   -3.3129   28.8610 N   0  0  0  0  0  0  0  0  0  0  0  0
  -11.7737   -3.6603   30.4438 C   0  0  0  0  0  0  0  0  0  0  0  0
  -10.3607   -3.9457   29.5624 C   0  0  0  0  0  0  0  0  0  0  0  0
  -12.7282   -4.9093   30.4760 C   0  0  0  0  0  0  0  0  0  0  0  0
  -11.5050   -3.0760   32.2064 C   0  0  0  0  0  0  0  0  0  0  0  0
  -12.4785   -2.9440   33.1225 C   0  0  0  0  0  0  0  0  0  0  0  0
  -12.5884   -2.4990   34.6706 C   0  0  0  0  0  0  0  0  0  0  0  0
  -11.6624   -2.1732   35.5421 N   0  0  0  0  0  0  0  0  0  0  0  0
  -10.5594   -2.3629   34.9138 C   0  0  0  0  0  0  0  0  0  0  0  0
  -10.4855   -2.7956   33.4331 C   0  0  0  0  0  0  0  0  0  0  0  0
  -11.6334   -1.6551   26.3379 C   0  0  0  0  0  0  0  0  0  0  0  0
  -10.7957   -2.3378   25.3772 O   0  0  0  0  0  0  0  0  0  0  0  0
  -12.8721   -3.3542   19.6999 H   0  0  0  0  0  0  0  0  0  0  0  0
  -14.4281   -2.9893   20.4586 H   0  0  0  0  0  0  0  0  0  0  0  0
  -13.7957   -4.6550   20.4824 H   0  0  0  0  0  0  0  0  0  0  0  0
  -11.1022   -2.4874   20.8982 H   0  0  0  0  0  0  0  0  0  0  0  0
   -9.9075   -2.0872   23.0762 H   0  0  0  0  0  0  0  0  0  0  0  0
  -14.4609   -3.9745   23.1619 H   0  0  0  0  0  0  0  0  0  0  0  0
  -14.2613   -3.8847   25.9374 H   0  0  0  0  0  0  0  0  0  0  0  0
  -11.8314   -3.8450   28.0933 H   0  0  0  0  0  0  0  0  0  0  0  0
  -10.3532   -4.9447   29.1023 H   0  0  0  0  0  0  0  0  0  0  0  0
  -10.2001   -3.2559   28.7060 H   0  0  0  0  0  0  0  0  0  0  0  0
   -9.4271   -3.6668   30.0184 H   0  0  0  0  0  0  0  0  0  0  0  0
  -12.7504   -5.4664   31.3938 H   0  0  0  0  0  0  0  0  0  0  0  0
  -12.4692   -5.6327   29.6897 H   0  0  0  0  0  0  0  0  0  0  0  0
  -13.7615   -4.6308   30.2593 H   0  0  0  0  0  0  0  0  0  0  0  0
  -13.2885   -3.4288   32.7024 H   0  0  0  0  0  0  0  0  0  0  0  0
  -13.5344   -2.5869   35.1962 H   0  0  0  0  0  0  0  0  0  0  0  0
   -9.6437   -2.1210   35.4513 H   0  0  0  0  0  0  0  0  0  0  0  0
   -9.4127   -2.5837   33.4241 H   0  0  0  0  0  0  0  0  0  0  0  0
  -11.9029   -0.6601   25.9735 H   0  0  0  0  0  0  0  0  0  0  0  0
  -10.9946   -1.4887   27.2121 H   0  0  0  0  0  0  0  0  0  0  0  0
  1  2  1  0
  2  3  2  0
  3  4  1  0
  4  5  2  0
  5  6  1  0
  6  7  2  0
  6  8  1  0
  8  9  2  0
  9 10  1  0
 10 11  2  0
 10 12  1  0
 12 13  1  0
 13 14  1  0
 13 15  1  0
 13 16  1  0
 16 17  2  0
 17 18  1  0
 18 19  2  0
 19 20  1  0
 20 21  2  0
  9 22  1  0
 22 23  1  0
  7  2  1  0
 21 16  1  0
 23  5  1  0
  1 24  1  0
  1 25  1  0
  1 26  1  0
  3 27  1  0
  4 28  1  0
  7 29  1  0
  8 30  1  0
 12 31  1  0
 14 32  1  0
 14 33  1  0
 14 34  1  0
 15 35  1  0
 15 36  1  0
 15 37  1  0
 17 38  1  0
 18 39  1  0
 20 40  1  0
 21 41  1  0
 22 42  1  0
 22 43  1  0
M  END
>  <Energy>  (657) 
327.00400328169587

>  <compound_id>  (657) 
17169

>  <target_id>  (657) 
1

>  <reference_id>  (657) 
7

>  <inspiration_ids>  (657) 
[91, 7]

>  <energy_score>  (657) 
273.4695550720872

>  <distance_score>  (657) 
13.987682016932723

>  <path>  (657) 
/opt/xchem-fragalysis-2/maxwin/BulkDock/SCRATCH/511023/C17169-P7/C17169-P7.minimised.mol

>  <scratch_subdir>  (657) 
/opt/xchem-fragalysis-2/maxwin/BulkDock/SCRATCH/511023/C17169-P7

>  <fragmenstein_runtime>  (657) 
15.450907468795776

>  <fragmenstein_outcome>  (657) 
too moved

>  <fragmenstein_mode>  (657) 
expansion

>  <fragmenstein_error>  (657) 


$$$$
C17170-P7
     RDKit          3D

 35 38  0  0  0  0  0  0  0  0999 V2000
   -9.7703   -0.2237    7.7012 C   0  0  0  0  0  0  0  0  0  0  0  0
   -8.8072   -0.1594    8.8448 C   0  0  0  0  0  0  0  0  0  0  0  0
   -7.4359   -0.1435    8.5737 C   0  0  0  0  0  0  0  0  0  0  0  0
   -6.5116   -0.2537    9.6201 C   0  0  0  0  0  0  0  0  0  0  0  0
   -6.9029   -0.3280   11.0140 C   0  0  0  0  0  0  0  0  0  0  0  0
   -8.2353   -0.4667   11.1905 C   0  0  0  0  0  0  0  0  0  0  0  0
   -9.2372   -0.3248   10.1694 C   0  0  0  0  0  0  0  0  0  0  0  0
   -8.2816   -1.4669   12.8126 C   0  0  0  0  0  0  0  0  0  0  0  0
   -7.5502   -2.1604   14.2252 C   0  0  0  0  0  0  0  0  0  0  0  0
   -8.4904   -2.1594   15.8519 C   0  0  0  0  0  0  0  0  0  0  0  0
   -9.2672   -1.2927   17.0561 N   0  0  0  0  0  0  0  0  0  0  0  0
  -10.5052   -1.9630   17.6792 C   0  0  0  0  0  0  0  0  0  0  0  0
  -11.2480   -2.5378   19.1837 C   0  0  0  0  0  0  0  0  0  0  0  0
  -11.0713   -2.2750   20.5598 C   0  0  0  0  0  0  0  0  0  0  0  0
  -11.6316   -2.8419   21.6805 C   0  0  0  0  0  0  0  0  0  0  0  0
  -12.5924   -3.6950   21.5177 N   0  0  0  0  0  0  0  0  0  0  0  0
  -13.0410   -3.8236   20.2862 C   0  0  0  0  0  0  0  0  0  0  0  0
  -12.3536   -3.3477   19.1962 C   0  0  0  0  0  0  0  0  0  0  0  0
  -10.8232   -2.7052   16.6420 N   0  0  0  0  0  0  0  0  0  0  0  0
   -9.6795   -3.3411   15.9763 O   0  0  0  0  0  0  0  0  0  0  0  0
   -6.0915   -1.0454   13.8500 C   0  0  0  0  0  0  0  0  0  0  0  0
   -6.0038   -0.4768   12.2192 O   0  0  0  0  0  0  0  0  0  0  0  0
   -9.4200    0.3822    6.8589 H   0  0  0  0  0  0  0  0  0  0  0  0
   -9.8929   -1.2593    7.3687 H   0  0  0  0  0  0  0  0  0  0  0  0
  -10.7491    0.1684    7.9973 H   0  0  0  0  0  0  0  0  0  0  0  0
   -7.0766   -0.1036    7.5483 H   0  0  0  0  0  0  0  0  0  0  0  0
   -5.4599   -0.3210    9.3321 H   0  0  0  0  0  0  0  0  0  0  0  0
  -10.2778   -0.5424   10.3905 H   0  0  0  0  0  0  0  0  0  0  0  0
   -9.4151   -1.5113   12.5734 H   0  0  0  0  0  0  0  0  0  0  0  0
  -10.7796   -1.3473   20.9543 H   0  0  0  0  0  0  0  0  0  0  0  0
  -11.3881   -2.5247   22.6868 H   0  0  0  0  0  0  0  0  0  0  0  0
  -13.9420   -4.4080   20.1479 H   0  0  0  0  0  0  0  0  0  0  0  0
  -12.7994   -3.8168   18.3721 H   0  0  0  0  0  0  0  0  0  0  0  0
   -5.2020   -1.5995   14.1251 H   0  0  0  0  0  0  0  0  0  0  0  0
   -6.0708   -0.1745   14.4517 H   0  0  0  0  0  0  0  0  0  0  0  0
  1  2  1  0
  2  3  2  0
  3  4  1  0
  4  5  2  0
  5  6  1  0
  6  7  2  0
  6  8  1  0
  8  9  2  0
  9 10  1  0
 10 11  2  0
 11 12  1  0
 12 13  1  0
 13 14  2  0
 14 15  1  0
 15 16  2  0
 16 17  1  0
 17 18  2  0
 12 19  2  0
 19 20  1  0
  9 21  1  0
 21 22  1  0
  7  2  1  0
 20 10  1  0
 22  5  1  0
 18 13  1  0
  1 23  1  0
  1 24  1  0
  1 25  1  0
  3 26  1  0
  4 27  1  0
  7 28  1  0
  8 29  1  0
 14 30  1  0
 15 31  1  0
 17 32  1  0
 18 33  1  0
 21 34  1  0
 21 35  1  0
M  END
>  <Energy>  (658) 
599.25637440110256

>  <compound_id>  (658) 
17170

>  <target_id>  (658) 
1

>  <reference_id>  (658) 
7

>  <inspiration_ids>  (658) 
[91, 7]

>  <energy_score>  (658) 
522.2774412334603

>  <distance_score>  (658) 
11.705711772907899

>  <path>  (658) 
/opt/xchem-fragalysis-2/maxwin/BulkDock/SCRATCH/511023/C17170-P7/C17170-P7.minimised.mol

>  <scratch_subdir>  (658) 
/opt/xchem-fragalysis-2/maxwin/BulkDock/SCRATCH/511023/C17170-P7

>  <fragmenstein_runtime>  (658) 
8.389145851135254

>  <fragmenstein_outcome>  (658) 
too moved

>  <fragmenstein_mode>  (658) 
expansion

>  <fragmenstein_error>  (658) 


$$$$
C17171-P7
     RDKit          3D

 40 42  0  0  0  0  0  0  0  0999 V2000
   -6.1863   -0.4346   12.5227 C   0  0  0  0  0  0  0  0  0  0  0  0
   -6.2098   -1.1333   13.9009 C   0  0  0  0  0  0  0  0  0  0  0  0
   -5.0374   -1.0420   14.4068 C   0  0  0  0  0  0  0  0  0  0  0  0
   -5.6271   -1.9733   14.9461 C   0  0  0  0  0  0  0  0  0  0  0  0
   -7.2564   -1.7649   15.9159 C   0  0  0  0  0  0  0  0  0  0  0  0
   -8.3747   -1.4119   16.0491 C   0  0  0  0  0  0  0  0  0  0  0  0
   -7.6085   -2.1588   14.6188 C   0  0  0  0  0  0  0  0  0  0  0  0
   -9.3434   -1.1911   17.7023 C   0  0  0  0  0  0  0  0  0  0  0  0
  -10.3102   -1.9958   18.3551 C   0  0  0  0  0  0  0  0  0  0  0  0
  -11.3812   -2.6795   19.8383 C   0  0  0  0  0  0  0  0  0  0  0  0
  -12.4527   -3.0701   19.4293 O   0  0  0  0  0  0  0  0  0  0  0  0
  -10.8346   -2.6799   21.4291 N   0  0  0  0  0  0  0  0  0  0  0  0
  -11.6787   -3.1279   23.0031 C   0  0  0  0  0  0  0  0  0  0  0  0
  -11.7208   -4.5712   24.4339 C   0  0  0  0  0  0  0  0  0  0  0  0
  -12.1927   -5.3050   25.8433 C   0  0  0  0  0  0  0  0  0  0  0  0
  -11.3342   -5.4310   26.9587 C   0  0  0  0  0  0  0  0  0  0  0  0
  -11.8057   -5.9233   28.1714 C   0  0  0  0  0  0  0  0  0  0  0  0
  -13.0605   -6.3512   28.3746 N   0  0  0  0  0  0  0  0  0  0  0  0
  -13.8357   -6.3914   27.2722 C   0  0  0  0  0  0  0  0  0  0  0  0
  -13.4433   -5.9326   26.0094 C   0  0  0  0  0  0  0  0  0  0  0  0
  -10.5447   -2.3770   16.9368 C   0  0  0  0  0  0  0  0  0  0  0  0
   -8.9177   -2.7675   16.1298 O   0  0  0  0  0  0  0  0  0  0  0  0
   -6.8686   -0.7113   11.7213 H   0  0  0  0  0  0  0  0  0  0  0  0
   -5.1863   -0.5399   12.1000 H   0  0  0  0  0  0  0  0  0  0  0  0
   -6.3484    0.6243   12.7139 H   0  0  0  0  0  0  0  0  0  0  0  0
   -4.0412   -0.8956   14.0676 H   0  0  0  0  0  0  0  0  0  0  0  0
   -5.0456   -2.9432   14.8870 H   0  0  0  0  0  0  0  0  0  0  0  0
   -7.8351   -3.1262   14.1189 H   0  0  0  0  0  0  0  0  0  0  0  0
   -8.7005   -0.5382   18.2686 H   0  0  0  0  0  0  0  0  0  0  0  0
   -9.9420   -2.2196   21.4733 H   0  0  0  0  0  0  0  0  0  0  0  0
  -11.2082   -2.3528   23.6202 H   0  0  0  0  0  0  0  0  0  0  0  0
  -12.6326   -2.7681   22.6772 H   0  0  0  0  0  0  0  0  0  0  0  0
  -11.9741   -5.4803   23.8634 H   0  0  0  0  0  0  0  0  0  0  0  0
  -10.7025   -4.6955   24.7497 H   0  0  0  0  0  0  0  0  0  0  0  0
  -10.2801   -5.1823   26.9139 H   0  0  0  0  0  0  0  0  0  0  0  0
  -11.1337   -6.0174   29.0110 H   0  0  0  0  0  0  0  0  0  0  0  0
  -14.8227   -6.8234   27.4166 H   0  0  0  0  0  0  0  0  0  0  0  0
  -14.1379   -6.0200   25.1788 H   0  0  0  0  0  0  0  0  0  0  0  0
  -10.7493   -3.3647   16.6580 H   0  0  0  0  0  0  0  0  0  0  0  0
  -11.2415   -1.7038   16.3950 H   0  0  0  0  0  0  0  0  0  0  0  0
  1  2  1  0
  2  3  2  0
  3  4  1  0
  4  5  2  0
  5  6  1  0
  6  7  2  0
  6  8  1  0
  8  9  2  0
  9 10  1  0
 10 11  2  0
 10 12  1  0
 12 13  1  0
 13 14  1  0
 14 15  1  0
 15 16  2  0
 16 17  1  0
 17 18  2  0
 18 19  1  0
 19 20  2  0
  9 21  1  0
 21 22  1  0
  7  2  1  0
 20 15  1  0
 22  5  1  0
  1 23  1  0
  1 24  1  0
  1 25  1  0
  3 26  1  0
  4 27  1  0
  7 28  1  0
  8 29  1  0
 12 30  1  0
 13 31  1  0
 13 32  1  0
 14 33  1  0
 14 34  1  0
 16 35  1  0
 17 36  1  0
 19 37  1  0
 20 38  1  0
 21 39  1  0
 21 40  1  0
M  END
>  <Energy>  (659) 
1312.4890112994628

>  <compound_id>  (659) 
17171

>  <target_id>  (659) 
1

>  <reference_id>  (659) 
7

>  <inspiration_ids>  (659) 
[91, 7]

>  <energy_score>  (659) 
1266.79582386571

>  <distance_score>  (659) 
9.775802158304646

>  <path>  (659) 
/opt/xchem-fragalysis-2/maxwin/BulkDock/SCRATCH/511023/C17171-P7/C17171-P7.minimised.mol

>  <scratch_subdir>  (659) 
/opt/xchem-fragalysis-2/maxwin/BulkDock/SCRATCH/511023/C17171-P7

>  <fragmenstein_runtime>  (659) 
12.035141229629517

>  <fragmenstein_outcome>  (659) 
too moved

>  <fragmenstein_mode>  (659) 
expansion

>  <fragmenstein_error>  (659) 


$$$$
C46589-P7
     RDKit          3D

 37 39  0  0  0  0  0  0  0  0999 V2000
   -5.4770   -0.9076   13.0187 C   0  0  0  0  0  0  0  0  0  0  0  0
   -5.1995   -2.1551   14.2783 C   0  0  0  0  0  0  0  0  0  0  0  0
   -4.9777   -3.6427   14.2659 C   0  0  0  0  0  0  0  0  0  0  0  0
   -6.0009   -4.6649   14.1580 C   0  0  0  0  0  0  0  0  0  0  0  0
   -7.3482   -4.1920   14.1535 C   0  0  0  0  0  0  0  0  0  0  0  0
   -7.4955   -2.7190   14.4747 C   0  0  0  0  0  0  0  0  0  0  0  0
   -6.3903   -1.8298   14.6313 C   0  0  0  0  0  0  0  0  0  0  0  0
   -8.4411   -2.2773   15.7614 C   0  0  0  0  0  0  0  0  0  0  0  0
   -9.5365   -3.1011   16.2267 C   0  0  0  0  0  0  0  0  0  0  0  0
  -10.9269   -2.2943   17.3009 C   0  0  0  0  0  0  0  0  0  0  0  0
  -11.6331   -1.6022   16.6067 O   0  0  0  0  0  0  0  0  0  0  0  0
  -11.1049   -2.6840   18.9086 N   0  0  0  0  0  0  0  0  0  0  0  0
  -12.2343   -2.3751   19.9002 C   0  0  0  0  0  0  0  0  0  0  0  0
  -12.4027   -3.4567   21.0567 C   0  0  0  0  0  0  0  0  0  0  0  0
  -13.0639   -3.2416   22.4067 C   0  0  0  0  0  0  0  0  0  0  0  0
  -14.3580   -3.2593   22.8991 C   0  0  0  0  0  0  0  0  0  0  0  0
  -14.3708   -3.3034   24.2848 N   0  0  0  0  0  0  0  0  0  0  0  0
  -13.0953   -3.3336   24.5943 C   0  0  0  0  0  0  0  0  0  0  0  0
  -12.2510   -3.2881   23.5269 O   0  0  0  0  0  0  0  0  0  0  0  0
   -9.5569   -4.4169   15.1950 C   0  0  0  0  0  0  0  0  0  0  0  0
   -8.3803   -5.0532   14.4708 O   0  0  0  0  0  0  0  0  0  0  0  0
   -6.2349   -0.8547   12.2293 H   0  0  0  0  0  0  0  0  0  0  0  0
   -4.5687   -0.6831   12.4352 H   0  0  0  0  0  0  0  0  0  0  0  0
   -6.0844   -0.1162   13.4930 H   0  0  0  0  0  0  0  0  0  0  0  0
   -3.9538   -3.9802   14.4563 H   0  0  0  0  0  0  0  0  0  0  0  0
   -5.7703   -5.7221   14.1862 H   0  0  0  0  0  0  0  0  0  0  0  0
   -6.3110   -0.8580   15.0525 H   0  0  0  0  0  0  0  0  0  0  0  0
   -8.1326   -1.3468   16.1785 H   0  0  0  0  0  0  0  0  0  0  0  0
  -10.3454   -3.1794   19.2053 H   0  0  0  0  0  0  0  0  0  0  0  0
  -13.1832   -2.3211   19.3979 H   0  0  0  0  0  0  0  0  0  0  0  0
  -11.9208   -1.5591   20.5399 H   0  0  0  0  0  0  0  0  0  0  0  0
  -12.9279   -4.3049   20.6075 H   0  0  0  0  0  0  0  0  0  0  0  0
  -11.3891   -3.7590   21.2770 H   0  0  0  0  0  0  0  0  0  0  0  0
  -15.2772   -3.2936   22.3309 H   0  0  0  0  0  0  0  0  0  0  0  0
  -12.6363   -3.3722   25.5707 H   0  0  0  0  0  0  0  0  0  0  0  0
  -10.0272   -4.0575   14.2882 H   0  0  0  0  0  0  0  0  0  0  0  0
   -9.9039   -5.2667   15.7877 H   0  0  0  0  0  0  0  0  0  0  0  0
  1  2  1  0
  2  3  2  0
  3  4  1  0
  4  5  2  0
  5  6  1  0
  6  7  2  0
  6  8  1  0
  8  9  2  0
  9 10  1  0
 10 11  2  0
 10 12  1  0
 12 13  1  0
 13 14  1  0
 14 15  1  0
 15 16  2  0
 16 17  1  0
 17 18  2  0
 18 19  1  0
  9 20  1  0
 20 21  1  0
  7  2  1  0
 19 15  1  0
 21  5  1  0
  1 22  1  0
  1 23  1  0
  1 24  1  0
  3 25  1  0
  4 26  1  0
  7 27  1  0
  8 28  1  0
 12 29  1  0
 13 30  1  0
 13 31  1  0
 14 32  1  0
 14 33  1  0
 16 34  1  0
 18 35  1  0
 20 36  1  0
 20 37  1  0
M  END
>  <Energy>  (660) 
348.97249080092536

>  <compound_id>  (660) 
46589

>  <target_id>  (660) 
1

>  <reference_id>  (660) 
7

>  <inspiration_ids>  (660) 
[91, 7]

>  <energy_score>  (660) 
306.66043221419733

>  <distance_score>  (660) 
11.078707791690872

>  <path>  (660) 
/opt/xchem-fragalysis-2/maxwin/BulkDock/SCRATCH/511023/C46589-P7/C46589-P7.minimised.mol

>  <scratch_subdir>  (660) 
/opt/xchem-fragalysis-2/maxwin/BulkDock/SCRATCH/511023/C46589-P7

>  <fragmenstein_runtime>  (660) 
9.784937143325806

>  <fragmenstein_outcome>  (660) 
too moved

>  <fragmenstein_mode>  (660) 
expansion

>  <fragmenstein_error>  (660) 


$$$$
C45104-P7
     RDKit          3D

 37 39  0  0  0  0  0  0  0  0999 V2000
   -2.9436   -7.0918   23.8684 C   0  0  0  0  0  0  0  0  0  0  0  0
   -2.8441   -7.8642   22.5071 C   0  0  0  0  0  0  0  0  0  0  0  0
   -3.5151   -7.3366   21.1542 N   0  0  0  0  0  0  0  0  0  0  0  0
   -3.6431   -6.0108   20.6288 C   0  0  0  0  0  0  0  0  0  0  0  0
   -3.3566   -4.9447   21.1173 O   0  0  0  0  0  0  0  0  0  0  0  0
   -4.1289   -5.8808   19.1332 C   0  0  0  0  0  0  0  0  0  0  0  0
   -4.4502   -6.8404   18.2437 C   0  0  0  0  0  0  0  0  0  0  0  0
   -4.7496   -6.4686   16.8400 C   0  0  0  0  0  0  0  0  0  0  0  0
   -5.1830   -7.4167   15.8937 C   0  0  0  0  0  0  0  0  0  0  0  0
   -5.4055   -7.0663   14.5482 C   0  0  0  0  0  0  0  0  0  0  0  0
   -5.8393   -8.0911   13.5391 C   0  0  0  0  0  0  0  0  0  0  0  0
   -5.1991   -5.7470   14.1554 C   0  0  0  0  0  0  0  0  0  0  0  0
   -4.7713   -4.7946   15.0772 C   0  0  0  0  0  0  0  0  0  0  0  0
   -4.5484   -5.1573   16.4084 C   0  0  0  0  0  0  0  0  0  0  0  0
   -4.1097   -4.1612   17.2277 O   0  0  0  0  0  0  0  0  0  0  0  0
   -4.0810   -4.4272   18.6463 C   0  0  0  0  0  0  0  0  0  0  0  0
   -4.8140   -7.7520   21.9122 C   0  0  0  0  0  0  0  0  0  0  0  0
   -4.9889   -8.6090   22.9218 N   0  0  0  0  0  0  0  0  0  0  0  0
   -6.3074   -8.8157   23.2384 C   0  0  0  0  0  0  0  0  0  0  0  0
   -7.1836   -8.2153   22.3804 C   0  0  0  0  0  0  0  0  0  0  0  0
   -6.3340   -7.2306   21.2702 S   0  0  0  0  0  0  0  0  0  0  0  0
   -3.9364   -7.0608   24.3186 H   0  0  0  0  0  0  0  0  0  0  0  0
   -2.2817   -7.5817   24.5916 H   0  0  0  0  0  0  0  0  0  0  0  0
   -2.5716   -6.0709   23.7403 H   0  0  0  0  0  0  0  0  0  0  0  0
   -1.7863   -7.7085   22.2364 H   0  0  0  0  0  0  0  0  0  0  0  0
   -2.8704   -8.9653   22.5807 H   0  0  0  0  0  0  0  0  0  0  0  0
   -4.4607   -7.8899   18.5131 H   0  0  0  0  0  0  0  0  0  0  0  0
   -5.3419   -8.4473   16.2066 H   0  0  0  0  0  0  0  0  0  0  0  0
   -5.1210   -8.9168   13.5103 H   0  0  0  0  0  0  0  0  0  0  0  0
   -6.8177   -8.4950   13.8155 H   0  0  0  0  0  0  0  0  0  0  0  0
   -5.9073   -7.6722   12.5311 H   0  0  0  0  0  0  0  0  0  0  0  0
   -5.3582   -5.4753   13.1195 H   0  0  0  0  0  0  0  0  0  0  0  0
   -4.6106   -3.7651   14.7734 H   0  0  0  0  0  0  0  0  0  0  0  0
   -3.1557   -3.9511   18.9889 H   0  0  0  0  0  0  0  0  0  0  0  0
   -4.9166   -3.8858   19.0946 H   0  0  0  0  0  0  0  0  0  0  0  0
   -6.5686   -9.4819   24.0509 H   0  0  0  0  0  0  0  0  0  0  0  0
   -8.2556   -8.3229   22.3442 H   0  0  0  0  0  0  0  0  0  0  0  0
  1  2  1  0
  2  3  1  0
  3  4  1  0
  4  5  2  0
  4  6  1  0
  6  7  2  0
  7  8  1  0
  8  9  2  0
  9 10  1  0
 10 11  1  0
 10 12  2  0
 12 13  1  0
 13 14  2  0
 14 15  1  0
 15 16  1  0
  3 17  1  0
 17 18  2  0
 18 19  1  0
 19 20  2  0
 20 21  1  0
 16  6  1  0
 21 17  1  0
 14  8  1  0
  1 22  1  0
  1 23  1  0
  1 24  1  0
  2 25  1  0
  2 26  1  0
  7 27  1  0
  9 28  1  0
 11 29  1  0
 11 30  1  0
 11 31  1  0
 12 32  1  0
 13 33  1  0
 16 34  1  0
 16 35  1  0
 19 36  1  0
 20 37  1  0
M  END
>  <Energy>  (661) 
98.334961599376271

>  <compound_id>  (661) 
45104

>  <target_id>  (661) 
1

>  <reference_id>  (661) 
7

>  <inspiration_ids>  (661) 
[91, 7]

>  <energy_score>  (661) 
11.049068106894708

>  <distance_score>  (661) 
14.422205680309771

>  <path>  (661) 
/opt/xchem-fragalysis-2/maxwin/BulkDock/SCRATCH/511023/C45104-P7/C45104-P7.minimised.mol

>  <scratch_subdir>  (661) 
/opt/xchem-fragalysis-2/maxwin/BulkDock/SCRATCH/511023/C45104-P7

>  <fragmenstein_runtime>  (661) 
14.64370059967041

>  <fragmenstein_outcome>  (661) 
too moved

>  <fragmenstein_mode>  (661) 
expansion

>  <fragmenstein_error>  (661) 


$$$$
C17172-P7
     RDKit          3D

 43 45  0  0  0  0  0  0  0  0999 V2000
  -12.3717   -0.4875    9.2124 C   0  0  0  0  0  0  0  0  0  0  0  0
  -12.1967    0.1831   10.5471 C   0  0  0  0  0  0  0  0  0  0  0  0
  -11.4544    1.3552   10.6015 C   0  0  0  0  0  0  0  0  0  0  0  0
  -11.2477    1.9342   11.8357 C   0  0  0  0  0  0  0  0  0  0  0  0
  -11.6482    1.2452   12.9956 C   0  0  0  0  0  0  0  0  0  0  0  0
  -12.3253    0.0510   13.0251 C   0  0  0  0  0  0  0  0  0  0  0  0
  -12.7167   -0.3695   11.7545 C   0  0  0  0  0  0  0  0  0  0  0  0
  -12.5492   -0.6616   14.4611 C   0  0  0  0  0  0  0  0  0  0  0  0
  -11.7932   -0.7530   15.6844 C   0  0  0  0  0  0  0  0  0  0  0  0
  -12.0317   -1.6060   17.5073 C   0  0  0  0  0  0  0  0  0  0  0  0
  -12.9406   -1.1464   18.0334 O   0  0  0  0  0  0  0  0  0  0  0  0
  -11.4261   -2.8728   18.4211 N   0  0  0  0  0  0  0  0  0  0  0  0
  -10.4138   -2.4101   19.3501 C   0  0  0  0  0  0  0  0  0  0  0  0
  -11.9919   -3.6867   19.9195 C   0  0  0  0  0  0  0  0  0  0  0  0
  -13.4112   -4.1982   19.5199 C   0  0  0  0  0  0  0  0  0  0  0  0
  -12.0731   -3.4677   21.6184 C   0  0  0  0  0  0  0  0  0  0  0  0
  -12.8257   -4.4217   22.4351 C   0  0  0  0  0  0  0  0  0  0  0  0
  -12.8910   -4.3956   23.8524 C   0  0  0  0  0  0  0  0  0  0  0  0
  -12.1937   -3.5420   24.6102 N   0  0  0  0  0  0  0  0  0  0  0  0
  -11.4627   -2.6608   23.8899 C   0  0  0  0  0  0  0  0  0  0  0  0
  -11.4396   -2.5492   22.4575 C   0  0  0  0  0  0  0  0  0  0  0  0
  -11.8678    1.0915   15.2802 C   0  0  0  0  0  0  0  0  0  0  0  0
  -11.1896    1.7078   14.1608 O   0  0  0  0  0  0  0  0  0  0  0  0
  -11.4265   -0.9311    8.8876 H   0  0  0  0  0  0  0  0  0  0  0  0
  -13.1369   -1.2676    9.2556 H   0  0  0  0  0  0  0  0  0  0  0  0
  -12.6973    0.2416    8.4626 H   0  0  0  0  0  0  0  0  0  0  0  0
  -11.0546    1.8175    9.7043 H   0  0  0  0  0  0  0  0  0  0  0  0
  -10.6819    2.8568   11.9233 H   0  0  0  0  0  0  0  0  0  0  0  0
  -13.4824   -1.1096   11.6650 H   0  0  0  0  0  0  0  0  0  0  0  0
  -13.5995   -0.3894   14.6216 H   0  0  0  0  0  0  0  0  0  0  0  0
   -9.7161   -1.7764   18.7820 H   0  0  0  0  0  0  0  0  0  0  0  0
  -10.9170   -1.9890   20.2090 H   0  0  0  0  0  0  0  0  0  0  0  0
   -9.7342   -2.9796   19.9239 H   0  0  0  0  0  0  0  0  0  0  0  0
  -11.4457   -4.6161   19.8319 H   0  0  0  0  0  0  0  0  0  0  0  0
  -13.4170   -4.6286   18.5203 H   0  0  0  0  0  0  0  0  0  0  0  0
  -14.1498   -3.3975   19.5774 H   0  0  0  0  0  0  0  0  0  0  0  0
  -13.7791   -5.0241   20.1268 H   0  0  0  0  0  0  0  0  0  0  0  0
  -13.3883   -5.2316   21.9805 H   0  0  0  0  0  0  0  0  0  0  0  0
  -13.4906   -5.1236   24.3900 H   0  0  0  0  0  0  0  0  0  0  0  0
  -10.8944   -1.9473   24.4820 H   0  0  0  0  0  0  0  0  0  0  0  0
  -10.9398   -1.6752   22.0946 H   0  0  0  0  0  0  0  0  0  0  0  0
  -11.3504    1.7292   15.9934 H   0  0  0  0  0  0  0  0  0  0  0  0
  -12.9255    1.4356   15.2475 H   0  0  0  0  0  0  0  0  0  0  0  0
  1  2  1  0
  2  3  2  0
  3  4  1  0
  4  5  2  0
  5  6  1  0
  6  7  2  0
  6  8  1  0
  8  9  2  0
  9 10  1  0
 10 11  2  0
 10 12  1  0
 12 13  1  0
 12 14  1  0
 14 15  1  0
 14 16  1  0
 16 17  2  0
 17 18  1  0
 18 19  2  0
 19 20  1  0
 20 21  2  0
  9 22  1  0
 22 23  1  0
  7  2  1  0
 21 16  1  0
 23  5  1  0
  1 24  1  0
  1 25  1  0
  1 26  1  0
  3 27  1  0
  4 28  1  0
  7 29  1  0
  8 30  1  0
 13 31  1  0
 13 32  1  0
 13 33  1  0
 14 34  1  0
 15 35  1  0
 15 36  1  0
 15 37  1  0
 17 38  1  0
 18 39  1  0
 20 40  1  0
 21 41  1  0
 22 42  1  0
 22 43  1  0
M  END
>  <Energy>  (662) 
495.75899307745499

>  <compound_id>  (662) 
17172

>  <target_id>  (662) 
1

>  <reference_id>  (662) 
7

>  <inspiration_ids>  (662) 
[91, 7]

>  <energy_score>  (662) 
405.4410637109712

>  <distance_score>  (662) 
11.242253587702917

>  <path>  (662) 
/opt/xchem-fragalysis-2/maxwin/BulkDock/SCRATCH/511023/C17172-P7/C17172-P7.minimised.mol

>  <scratch_subdir>  (662) 
/opt/xchem-fragalysis-2/maxwin/BulkDock/SCRATCH/511023/C17172-P7

>  <fragmenstein_runtime>  (662) 
12.707884550094604

>  <fragmenstein_outcome>  (662) 
too moved

>  <fragmenstein_mode>  (662) 
expansion

>  <fragmenstein_error>  (662) 


$$$$
C46590-P7
     RDKit          3D

 38 40  0  0  0  0  0  0  0  0999 V2000
  -11.4733   -3.2792   24.0368 F   0  0  0  0  0  0  0  0  0  0  0  0
  -11.3075   -1.9519   23.7216 C   0  0  0  0  0  0  0  0  0  0  0  0
   -9.9188   -1.7871   23.7802 F   0  0  0  0  0  0  0  0  0  0  0  0
  -11.5435   -2.0513   21.6703 C   0  0  0  0  0  0  0  0  0  0  0  0
  -11.2981   -2.7293   19.8243 N   0  0  0  0  0  0  0  0  0  0  0  0
  -10.9136   -2.1548   17.9783 C   0  0  0  0  0  0  0  0  0  0  0  0
  -10.2512   -2.5121   16.0877 C   0  0  0  0  0  0  0  0  0  0  0  0
   -9.2941   -3.3936   15.2900 C   0  0  0  0  0  0  0  0  0  0  0  0
   -8.5889   -3.4148   13.5995 C   0  0  0  0  0  0  0  0  0  0  0  0
   -8.0904   -4.6707   12.3276 C   0  0  0  0  0  0  0  0  0  0  0  0
   -7.0302   -4.3342   10.6957 C   0  0  0  0  0  0  0  0  0  0  0  0
   -6.8924   -2.3412   10.0552 C   0  0  0  0  0  0  0  0  0  0  0  0
   -7.3046   -1.0176   11.4949 C   0  0  0  0  0  0  0  0  0  0  0  0
   -8.3375   -1.7095   13.0168 C   0  0  0  0  0  0  0  0  0  0  0  0
  -10.1544   -1.7188   13.0657 O   0  0  0  0  0  0  0  0  0  0  0  0
  -10.9710   -1.6745   14.7013 C   0  0  0  0  0  0  0  0  0  0  0  0
  -11.9131   -1.1046   25.4295 C   0  0  0  0  0  0  0  0  0  0  0  0
  -13.1235   -0.9928   26.1782 C   0  0  0  0  0  0  0  0  0  0  0  0
  -13.5814   -0.5103   27.4461 C   0  0  0  0  0  0  0  0  0  0  0  0
  -12.6757    0.0879   28.1862 C   0  0  0  0  0  0  0  0  0  0  0  0
  -11.4296   -0.0679   27.6687 C   0  0  0  0  0  0  0  0  0  0  0  0
  -11.1725   -0.4454   26.3587 N   0  0  0  0  0  0  0  0  0  0  0  0
  -11.5481   -1.0154   21.4284 H   0  0  0  0  0  0  0  0  0  0  0  0
  -10.5795   -2.5122   21.7432 H   0  0  0  0  0  0  0  0  0  0  0  0
  -12.2897   -2.9543   19.6658 H   0  0  0  0  0  0  0  0  0  0  0  0
  -10.0095   -1.5872   18.2143 H   0  0  0  0  0  0  0  0  0  0  0  0
  -11.8075   -1.5775   17.8064 H   0  0  0  0  0  0  0  0  0  0  0  0
   -8.7868   -4.2150   15.7889 H   0  0  0  0  0  0  0  0  0  0  0  0
   -7.6478   -5.4900   12.9265 H   0  0  0  0  0  0  0  0  0  0  0  0
   -7.2339   -4.9955    9.8018 H   0  0  0  0  0  0  0  0  0  0  0  0
   -6.9940   -1.9724    9.0049 H   0  0  0  0  0  0  0  0  0  0  0  0
   -7.6575   -0.1192   10.9273 H   0  0  0  0  0  0  0  0  0  0  0  0
  -11.9568   -1.8336   14.4168 H   0  0  0  0  0  0  0  0  0  0  0  0
  -11.0768   -0.6014   14.9298 H   0  0  0  0  0  0  0  0  0  0  0  0
  -14.0785   -1.0047   25.7619 H   0  0  0  0  0  0  0  0  0  0  0  0
  -14.6353   -0.4800   27.7040 H   0  0  0  0  0  0  0  0  0  0  0  0
  -12.9716    0.6473   29.0534 H   0  0  0  0  0  0  0  0  0  0  0  0
  -10.5166    0.2090   28.1795 H   0  0  0  0  0  0  0  0  0  0  0  0
  1  2  1  0
  2  3  1  0
  2  4  1  0
  4  5  1  0
  5  6  1  0
  6  7  1  0
  7  8  2  0
  8  9  1  0
  9 10  2  0
 10 11  1  0
 11 12  2  0
 12 13  1  0
 13 14  2  0
 14 15  1  0
 15 16  1  0
  2 17  1  0
 17 18  2  0
 18 19  1  0
 19 20  2  0
 20 21  1  0
 21 22  2  0
 16  7  1  0
 22 17  1  0
 14  9  1  0
  4 23  1  0
  4 24  1  0
  5 25  1  0
  6 26  1  0
  6 27  1  0
  8 28  1  0
 10 29  1  0
 11 30  1  0
 12 31  1  0
 13 32  1  0
 16 33  1  0
 16 34  1  0
 18 35  1  0
 19 36  1  0
 20 37  1  0
 21 38  1  0
M  END
>  <Energy>  (663) 
1479.2770529342345

>  <compound_id>  (663) 
46590

>  <target_id>  (663) 
1

>  <reference_id>  (663) 
7

>  <inspiration_ids>  (663) 
[91, 7]

>  <energy_score>  (663) 
1325.4112944847816

>  <distance_score>  (663) 
9.600525940169215

>  <path>  (663) 
/opt/xchem-fragalysis-2/maxwin/BulkDock/SCRATCH/511023/C46590-P7/C46590-P7.minimised.mol

>  <scratch_subdir>  (663) 
/opt/xchem-fragalysis-2/maxwin/BulkDock/SCRATCH/511023/C46590-P7

>  <fragmenstein_runtime>  (663) 
9.620596170425415

>  <fragmenstein_outcome>  (663) 
too moved

>  <fragmenstein_mode>  (663) 
expansion

>  <fragmenstein_error>  (663) 


$$$$
C46591-P7
     RDKit          3D

 38 40  0  0  0  0  0  0  0  0999 V2000
  -10.2236   -3.2364   24.2318 F   0  0  0  0  0  0  0  0  0  0  0  0
  -11.6441   -3.2563   24.1292 C   0  0  0  0  0  0  0  0  0  0  0  0
  -11.9415   -2.0655   24.7364 F   0  0  0  0  0  0  0  0  0  0  0  0
  -11.5902   -2.9563   22.2377 C   0  0  0  0  0  0  0  0  0  0  0  0
  -12.0092   -2.1424   20.7849 N   0  0  0  0  0  0  0  0  0  0  0  0
  -11.2674   -2.5043   19.1811 C   0  0  0  0  0  0  0  0  0  0  0  0
  -10.8373   -1.6287   17.5184 C   0  0  0  0  0  0  0  0  0  0  0  0
  -11.4770   -1.4434   16.2907 C   0  0  0  0  0  0  0  0  0  0  0  0
  -11.3546   -0.3724   15.1233 C   0  0  0  0  0  0  0  0  0  0  0  0
  -11.8670   -0.3922   13.8251 C   0  0  0  0  0  0  0  0  0  0  0  0
  -11.9038    0.7642   13.0242 C   0  0  0  0  0  0  0  0  0  0  0  0
  -12.2703    0.6013   11.3383 Cl  0  0  0  0  0  0  0  0  0  0  0  0
  -11.4725    1.9952   13.5289 C   0  0  0  0  0  0  0  0  0  0  0  0
  -10.8448    2.0352   14.7783 C   0  0  0  0  0  0  0  0  0  0  0  0
  -10.7194    0.8354   15.4915 C   0  0  0  0  0  0  0  0  0  0  0  0
   -9.8558    0.7417   16.6450 O   0  0  0  0  0  0  0  0  0  0  0  0
   -9.5772   -0.7586   17.1704 C   0  0  0  0  0  0  0  0  0  0  0  0
  -12.3099   -4.4906   25.4337 C   0  0  0  0  0  0  0  0  0  0  0  0
  -12.5848   -3.9893   26.8100 C   0  0  0  0  0  0  0  0  0  0  0  0
  -13.1401   -4.7428   27.8462 C   0  0  0  0  0  0  0  0  0  0  0  0
  -13.5798   -6.0041   27.5427 C   0  0  0  0  0  0  0  0  0  0  0  0
  -13.4856   -6.4019   26.2176 C   0  0  0  0  0  0  0  0  0  0  0  0
  -12.9388   -5.6792   25.1850 N   0  0  0  0  0  0  0  0  0  0  0  0
  -11.3177   -3.8523   21.7439 H   0  0  0  0  0  0  0  0  0  0  0  0
  -10.6657   -2.3882   22.3321 H   0  0  0  0  0  0  0  0  0  0  0  0
  -11.6567   -1.2219   21.0298 H   0  0  0  0  0  0  0  0  0  0  0  0
  -11.7903   -3.4153   18.9170 H   0  0  0  0  0  0  0  0  0  0  0  0
  -10.2670   -2.6443   19.5821 H   0  0  0  0  0  0  0  0  0  0  0  0
  -12.5153   -1.3518   16.4598 H   0  0  0  0  0  0  0  0  0  0  0  0
  -12.0969   -1.3221   13.3483 H   0  0  0  0  0  0  0  0  0  0  0  0
  -11.4989    2.8864   12.9084 H   0  0  0  0  0  0  0  0  0  0  0  0
  -10.3781    2.9432   15.1431 H   0  0  0  0  0  0  0  0  0  0  0  0
   -9.0401   -1.2568   16.3759 H   0  0  0  0  0  0  0  0  0  0  0  0
   -8.8772   -0.6479   17.9964 H   0  0  0  0  0  0  0  0  0  0  0  0
  -12.4300   -2.9361   27.0596 H   0  0  0  0  0  0  0  0  0  0  0  0
  -13.2452   -4.3232   28.8388 H   0  0  0  0  0  0  0  0  0  0  0  0
  -14.0204   -6.6551   28.2865 H   0  0  0  0  0  0  0  0  0  0  0  0
  -13.8545   -7.3775   25.9098 H   0  0  0  0  0  0  0  0  0  0  0  0
  1  2  1  0
  2  3  1  0
  2  4  1  0
  4  5  1  0
  5  6  1  0
  6  7  1  0
  7  8  2  0
  8  9  1  0
  9 10  2  0
 10 11  1  0
 11 12  1  0
 11 13  2  0
 13 14  1  0
 14 15  2  0
 15 16  1  0
 16 17  1  0
  2 18  1  0
 18 19  2  0
 19 20  1  0
 20 21  2  0
 21 22  1  0
 22 23  2  0
 17  7  1  0
 23 18  1  0
 15  9  1  0
  4 24  1  0
  4 25  1  0
  5 26  1  0
  6 27  1  0
  6 28  1  0
  8 29  1  0
 10 30  1  0
 13 31  1  0
 14 32  1  0
 17 33  1  0
 17 34  1  0
 19 35  1  0
 20 36  1  0
 21 37  1  0
 22 38  1  0
M  END
>  <Energy>  (664) 
465.61752878274569

>  <compound_id>  (664) 
46591

>  <target_id>  (664) 
1

>  <reference_id>  (664) 
7

>  <inspiration_ids>  (664) 
[91, 7]

>  <energy_score>  (664) 
314.2382366890464

>  <distance_score>  (664) 
11.276665209966966

>  <path>  (664) 
/opt/xchem-fragalysis-2/maxwin/BulkDock/SCRATCH/511023/C46591-P7/C46591-P7.minimised.mol

>  <scratch_subdir>  (664) 
/opt/xchem-fragalysis-2/maxwin/BulkDock/SCRATCH/511023/C46591-P7

>  <fragmenstein_runtime>  (664) 
11.3797767162323

>  <fragmenstein_outcome>  (664) 
too moved

>  <fragmenstein_mode>  (664) 
expansion

>  <fragmenstein_error>  (664) 


$$$$
C14363-P7
     RDKit          3D

 44 47  0  0  0  0  0  0  0  0999 V2000
  -14.6727    0.8850   15.7916 C   0  0  0  0  0  0  0  0  0  0  0  0
  -15.6130    1.4395   16.6224 C   0  0  0  0  0  0  0  0  0  0  0  0
  -15.8076    1.1747   18.5313 C   0  0  0  0  0  0  0  0  0  0  0  0
  -15.3220    1.8245   20.1556 N   0  0  0  0  0  0  0  0  0  0  0  0
  -15.2401    0.7543   21.0423 C   0  0  0  0  0  0  0  0  0  0  0  0
  -13.8663    0.1361   22.0314 C   0  0  0  0  0  0  0  0  0  0  0  0
  -12.3358    0.8890   22.9957 N   0  0  0  0  0  0  0  0  0  0  0  0
  -11.9176    0.1775   24.8402 C   0  0  0  0  0  0  0  0  0  0  0  0
  -11.2953    0.4734   26.1553 C   0  0  0  0  0  0  0  0  0  0  0  0
  -11.4153    0.6566   27.8126 C   0  0  0  0  0  0  0  0  0  0  0  0
  -12.5811    0.6649   28.3543 C   0  0  0  0  0  0  0  0  0  0  0  0
  -13.1752    0.0569   27.4298 N   0  0  0  0  0  0  0  0  0  0  0  0
  -12.8732   -0.1757   25.8717 C   0  0  0  0  0  0  0  0  0  0  0  0
  -12.6993    2.3543   21.8700 C   0  0  0  0  0  0  0  0  0  0  0  0
  -13.9369    2.6843   20.6254 C   0  0  0  0  0  0  0  0  0  0  0  0
  -16.7818    1.9070   15.6945 C   0  0  0  0  0  0  0  0  0  0  0  0
  -16.4070    2.5204   14.4055 O   0  0  0  0  0  0  0  0  0  0  0  0
  -15.3272    2.0019   13.7357 C   0  0  0  0  0  0  0  0  0  0  0  0
  -15.0745    2.3732   12.4086 C   0  0  0  0  0  0  0  0  0  0  0  0
  -13.9471    1.8887   11.7190 C   0  0  0  0  0  0  0  0  0  0  0  0
  -13.0543    1.0369   12.3597 C   0  0  0  0  0  0  0  0  0  0  0  0
  -13.2979    0.6890   13.6891 C   0  0  0  0  0  0  0  0  0  0  0  0
  -14.4384    1.1689   14.3735 C   0  0  0  0  0  0  0  0  0  0  0  0
  -14.0435    0.0751   16.0674 H   0  0  0  0  0  0  0  0  0  0  0  0
  -16.7417    1.7171   18.5882 H   0  0  0  0  0  0  0  0  0  0  0  0
  -14.7830    0.9304   18.3536 H   0  0  0  0  0  0  0  0  0  0  0  0
  -15.3071   -0.0590   20.3289 H   0  0  0  0  0  0  0  0  0  0  0  0
  -16.2488    0.8758   21.4661 H   0  0  0  0  0  0  0  0  0  0  0  0
  -14.6987   -0.3366   22.4370 H   0  0  0  0  0  0  0  0  0  0  0  0
  -13.2539   -0.6970   21.6332 H   0  0  0  0  0  0  0  0  0  0  0  0
  -10.3681   -0.1127   26.4997 H   0  0  0  0  0  0  0  0  0  0  0  0
  -10.4600    0.6831   28.3300 H   0  0  0  0  0  0  0  0  0  0  0  0
  -13.0628    0.9025   29.2674 H   0  0  0  0  0  0  0  0  0  0  0  0
  -13.2947   -1.1438   25.7105 H   0  0  0  0  0  0  0  0  0  0  0  0
  -11.9726    2.2379   21.1019 H   0  0  0  0  0  0  0  0  0  0  0  0
  -12.7623    3.2727   22.4540 H   0  0  0  0  0  0  0  0  0  0  0  0
  -13.4468    3.0532   19.7290 H   0  0  0  0  0  0  0  0  0  0  0  0
  -14.2682    3.6207   21.0791 H   0  0  0  0  0  0  0  0  0  0  0  0
  -17.4085    1.0365   15.4567 H   0  0  0  0  0  0  0  0  0  0  0  0
  -17.4584    2.6202   16.1685 H   0  0  0  0  0  0  0  0  0  0  0  0
  -15.7570    3.0569   11.9108 H   0  0  0  0  0  0  0  0  0  0  0  0
  -13.7692    2.1971   10.6925 H   0  0  0  0  0  0  0  0  0  0  0  0
  -12.1702    0.6712   11.8464 H   0  0  0  0  0  0  0  0  0  0  0  0
  -12.5781    0.0642   14.2100 H   0  0  0  0  0  0  0  0  0  0  0  0
  1  2  2  0
  2  3  1  0
  3  4  1  0
  4  5  1  0
  5  6  1  0
  6  7  1  0
  7  8  1  0
  8  9  2  0
  9 10  1  0
 10 11  2  0
 11 12  1  0
 12 13  2  0
  7 14  1  0
 14 15  1  0
  2 16  1  0
 16 17  1  0
 17 18  1  0
 18 19  2  0
 19 20  1  0
 20 21  2  0
 21 22  1  0
 22 23  2  0
 23  1  1  0
 15  4  1  0
 23 18  1  0
 13  8  1  0
  1 24  1  0
  3 25  1  0
  3 26  1  0
  5 27  1  0
  5 28  1  0
  6 29  1  0
  6 30  1  0
  9 31  1  0
 10 32  1  0
 11 33  1  0
 13 34  1  0
 14 35  1  0
 14 36  1  0
 15 37  1  0
 15 38  1  0
 16 39  1  0
 16 40  1  0
 19 41  1  0
 20 42  1  0
 21 43  1  0
 22 44  1  0
M  END
>  <Energy>  (665) 
1018.1769967578364

>  <compound_id>  (665) 
14363

>  <target_id>  (665) 
1

>  <reference_id>  (665) 
7

>  <inspiration_ids>  (665) 
[91, 7]

>  <energy_score>  (665) 
837.3954053763226

>  <distance_score>  (665) 
11.12750894152039

>  <path>  (665) 
/opt/xchem-fragalysis-2/maxwin/BulkDock/SCRATCH/511023/C14363-P7/C14363-P7.minimised.mol

>  <scratch_subdir>  (665) 
/opt/xchem-fragalysis-2/maxwin/BulkDock/SCRATCH/511023/C14363-P7

>  <fragmenstein_runtime>  (665) 
14.962873458862305

>  <fragmenstein_outcome>  (665) 
too moved

>  <fragmenstein_mode>  (665) 
expansion

>  <fragmenstein_error>  (665) 


$$$$
C44388-P7
     RDKit          3D

 34 36  0  0  0  0  0  0  0  0999 V2000
  -11.2235    3.3182   19.9097 O   0  0  0  0  0  0  0  0  0  0  0  0
  -12.3349    3.0645   20.3406 C   0  0  0  0  0  0  0  0  0  0  0  0
  -12.7513    2.2193   21.4400 N   0  0  0  0  0  0  0  0  0  0  0  0
  -11.5981    0.8219   22.7967 S   0  0  0  0  0  0  0  0  0  0  0  0
  -10.2077    1.3311   22.7760 O   0  0  0  0  0  0  0  0  0  0  0  0
  -13.0190    0.8820   22.5626 O   0  0  0  0  0  0  0  0  0  0  0  0
  -11.3620   -0.5116   24.7037 C   0  0  0  0  0  0  0  0  0  0  0  0
  -11.6672    0.1576   26.4082 C   0  0  0  0  0  0  0  0  0  0  0  0
  -11.0024    0.3205   27.8129 C   0  0  0  0  0  0  0  0  0  0  0  0
  -11.9956    0.5556   28.7163 C   0  0  0  0  0  0  0  0  0  0  0  0
  -13.1330    0.3039   28.1107 O   0  0  0  0  0  0  0  0  0  0  0  0
  -12.9371    0.0138   26.7786 N   0  0  0  0  0  0  0  0  0  0  0  0
  -13.7432    3.7826   19.3166 C   0  0  0  0  0  0  0  0  0  0  0  0
  -13.8520    3.1227   18.1312 C   0  0  0  0  0  0  0  0  0  0  0  0
  -14.2917    3.4584   16.7296 C   0  0  0  0  0  0  0  0  0  0  0  0
  -14.0800    2.6086   15.6016 C   0  0  0  0  0  0  0  0  0  0  0  0
  -13.7690    3.1365   14.3445 C   0  0  0  0  0  0  0  0  0  0  0  0
  -13.3243    2.3331   13.3551 F   0  0  0  0  0  0  0  0  0  0  0  0
  -13.8429    4.5081   14.1524 C   0  0  0  0  0  0  0  0  0  0  0  0
  -14.2224    5.3386   15.2270 C   0  0  0  0  0  0  0  0  0  0  0  0
  -14.4128    4.8100   16.5149 C   0  0  0  0  0  0  0  0  0  0  0  0
  -14.7008    5.6042   17.5874 O   0  0  0  0  0  0  0  0  0  0  0  0
  -13.9779    5.2908   18.8466 C   0  0  0  0  0  0  0  0  0  0  0  0
  -13.6964    2.1751   21.4465 H   0  0  0  0  0  0  0  0  0  0  0  0
  -11.7106   -1.5795   24.5787 H   0  0  0  0  0  0  0  0  0  0  0  0
  -10.3987   -0.9571   24.3802 H   0  0  0  0  0  0  0  0  0  0  0  0
   -9.9538    0.1887   28.0766 H   0  0  0  0  0  0  0  0  0  0  0  0
  -12.1019    0.8641   29.7345 H   0  0  0  0  0  0  0  0  0  0  0  0
  -12.8076    2.9778   17.9737 H   0  0  0  0  0  0  0  0  0  0  0  0
  -14.0253    1.5311   15.7109 H   0  0  0  0  0  0  0  0  0  0  0  0
  -13.6234    4.9324   13.1781 H   0  0  0  0  0  0  0  0  0  0  0  0
  -14.3118    6.4114   15.0751 H   0  0  0  0  0  0  0  0  0  0  0  0
  -13.0727    5.8681   18.6641 H   0  0  0  0  0  0  0  0  0  0  0  0
  -14.5682    5.7926   19.6151 H   0  0  0  0  0  0  0  0  0  0  0  0
  1  2  2  0
  2  3  1  0
  3  4  1  0
  4  5  2  0
  4  6  2  0
  4  7  1  0
  7  8  1  0
  8  9  1  0
  9 10  2  0
 10 11  1  0
 11 12  1  0
  2 13  1  0
 13 14  2  0
 14 15  1  0
 15 16  2  0
 16 17  1  0
 17 18  1  0
 17 19  2  0
 19 20  1  0
 20 21  2  0
 21 22  1  0
 22 23  1  0
 12  8  2  0
 23 13  1  0
 21 15  1  0
  3 24  1  0
  7 25  1  0
  7 26  1  0
  9 27  1  0
 10 28  1  0
 14 29  1  0
 16 30  1  0
 19 31  1  0
 20 32  1  0
 23 33  1  0
 23 34  1  0
M  END
>  <Energy>  (666) 
493.31410154423639

>  <compound_id>  (666) 
44388

>  <target_id>  (666) 
1

>  <reference_id>  (666) 
7

>  <inspiration_ids>  (666) 
[91, 7]

>  <energy_score>  (666) 
539.6949413564877

>  <distance_score>  (666) 
11.9422434807312

>  <path>  (666) 
/opt/xchem-fragalysis-2/maxwin/BulkDock/SCRATCH/511023/C44388-P7/C44388-P7.minimised.mol

>  <scratch_subdir>  (666) 
/opt/xchem-fragalysis-2/maxwin/BulkDock/SCRATCH/511023/C44388-P7

>  <fragmenstein_runtime>  (666) 
19.22783327102661

>  <fragmenstein_outcome>  (666) 
too moved

>  <fragmenstein_mode>  (666) 
expansion

>  <fragmenstein_error>  (666) 


$$$$
C44389-P7
     RDKit          3D

 34 36  0  0  0  0  0  0  0  0999 V2000
  -15.1134    0.2131   20.9439 O   0  0  0  0  0  0  0  0  0  0  0  0
  -14.6298   -0.6215   20.1642 C   0  0  0  0  0  0  0  0  0  0  0  0
  -13.2176   -1.8735   20.5509 N   0  0  0  0  0  0  0  0  0  0  0  0
  -12.1427   -2.0655   22.0932 C   0  0  0  0  0  0  0  0  0  0  0  0
  -11.0781   -1.3301   23.6196 C   0  0  0  0  0  0  0  0  0  0  0  0
  -11.6421   -0.2887   25.2048 C   0  0  0  0  0  0  0  0  0  0  0  0
  -12.9355   -0.2196   26.0340 C   0  0  0  0  0  0  0  0  0  0  0  0
  -12.7102   -0.0847   27.3676 C   0  0  0  0  0  0  0  0  0  0  0  0
  -11.4936    0.3617   27.4688 O   0  0  0  0  0  0  0  0  0  0  0  0
  -10.8930   -0.0258   26.3452 N   0  0  0  0  0  0  0  0  0  0  0  0
  -15.2626   -0.5419   18.2690 C   0  0  0  0  0  0  0  0  0  0  0  0
  -15.7560   -1.2861   17.1476 C   0  0  0  0  0  0  0  0  0  0  0  0
  -15.3605   -0.8297   15.7228 C   0  0  0  0  0  0  0  0  0  0  0  0
  -14.5538   -1.5355   14.7936 C   0  0  0  0  0  0  0  0  0  0  0  0
  -13.9337   -0.8567   13.7292 C   0  0  0  0  0  0  0  0  0  0  0  0
  -13.0192   -1.4705   12.9582 F   0  0  0  0  0  0  0  0  0  0  0  0
  -14.1981    0.4890   13.5064 C   0  0  0  0  0  0  0  0  0  0  0  0
  -15.0497    1.1720   14.3834 C   0  0  0  0  0  0  0  0  0  0  0  0
  -15.5672    0.5096   15.5025 C   0  0  0  0  0  0  0  0  0  0  0  0
  -16.2476    1.1326   16.5114 O   0  0  0  0  0  0  0  0  0  0  0  0
  -15.6152    0.8246   17.8099 C   0  0  0  0  0  0  0  0  0  0  0  0
  -12.9649   -2.3762   19.7154 H   0  0  0  0  0  0  0  0  0  0  0  0
  -11.2491   -2.1590   21.4601 H   0  0  0  0  0  0  0  0  0  0  0  0
  -12.2845   -3.1110   22.3344 H   0  0  0  0  0  0  0  0  0  0  0  0
  -10.6323   -2.2354   24.0205 H   0  0  0  0  0  0  0  0  0  0  0  0
  -10.3224   -0.7040   23.1602 H   0  0  0  0  0  0  0  0  0  0  0  0
  -13.6951   -0.8697   25.7708 H   0  0  0  0  0  0  0  0  0  0  0  0
  -13.1493   -0.4930   28.2583 H   0  0  0  0  0  0  0  0  0  0  0  0
  -16.0279   -2.3451   17.1760 H   0  0  0  0  0  0  0  0  0  0  0  0
  -14.3099   -2.5830   14.9537 H   0  0  0  0  0  0  0  0  0  0  0  0
  -13.7303    1.0021   12.6723 H   0  0  0  0  0  0  0  0  0  0  0  0
  -15.2578    2.2262   14.2290 H   0  0  0  0  0  0  0  0  0  0  0  0
  -14.6397    1.2108   17.6340 H   0  0  0  0  0  0  0  0  0  0  0  0
  -16.2460    1.2553   18.5919 H   0  0  0  0  0  0  0  0  0  0  0  0
  1  2  2  0
  2  3  1  0
  3  4  1  0
  4  5  1  0
  5  6  1  0
  6  7  1  0
  7  8  2  0
  8  9  1  0
  9 10  1  0
  2 11  1  0
 11 12  2  0
 12 13  1  0
 13 14  2  0
 14 15  1  0
 15 16  1  0
 15 17  2  0
 17 18  1  0
 18 19  2  0
 19 20  1  0
 20 21  1  0
 10  6  2  0
 21 11  1  0
 19 13  1  0
  3 22  1  0
  4 23  1  0
  4 24  1  0
  5 25  1  0
  5 26  1  0
  7 27  1  0
  8 28  1  0
 12 29  1  0
 14 30  1  0
 17 31  1  0
 18 32  1  0
 21 33  1  0
 21 34  1  0
M  END
>  <Energy>  (667) 
470.09884582814567

>  <compound_id>  (667) 
44389

>  <target_id>  (667) 
1

>  <reference_id>  (667) 
7

>  <inspiration_ids>  (667) 
[91, 7]

>  <energy_score>  (667) 
449.28286030808056

>  <distance_score>  (667) 
11.65609513177758

>  <path>  (667) 
/opt/xchem-fragalysis-2/maxwin/BulkDock/SCRATCH/511023/C44389-P7/C44389-P7.minimised.mol

>  <scratch_subdir>  (667) 
/opt/xchem-fragalysis-2/maxwin/BulkDock/SCRATCH/511023/C44389-P7

>  <fragmenstein_runtime>  (667) 
10.386499881744385

>  <fragmenstein_outcome>  (667) 
too moved

>  <fragmenstein_mode>  (667) 
expansion

>  <fragmenstein_error>  (667) 


$$$$
C17173-P7
     RDKit          3D

 37 39  0  0  0  0  0  0  0  0999 V2000
   -7.2075    0.4087   17.9900 O   0  0  0  0  0  0  0  0  0  0  0  0
   -7.7246   -0.7005   17.7826 C   0  0  0  0  0  0  0  0  0  0  0  0
   -8.2469   -2.0067   19.0522 N   0  0  0  0  0  0  0  0  0  0  0  0
   -7.9302   -2.2002   20.9888 C   0  0  0  0  0  0  0  0  0  0  0  0
   -8.7059   -2.2170   22.9314 C   0  0  0  0  0  0  0  0  0  0  0  0
   -8.1823   -2.5688   24.4803 C   0  0  0  0  0  0  0  0  0  0  0  0
   -7.6497   -1.5837   25.5341 C   0  0  0  0  0  0  0  0  0  0  0  0
   -7.4969   -1.9410   27.0083 C   0  0  0  0  0  0  0  0  0  0  0  0
   -7.7875   -3.2182   27.6352 N   0  0  0  0  0  0  0  0  0  0  0  0
   -8.3967   -4.2210   26.7232 C   0  0  0  0  0  0  0  0  0  0  0  0
   -8.5837   -3.8390   25.1323 C   0  0  0  0  0  0  0  0  0  0  0  0
   -7.8542   -1.5400   15.8850 C   0  0  0  0  0  0  0  0  0  0  0  0
   -7.4916   -2.1076   14.3147 C   0  0  0  0  0  0  0  0  0  0  0  0
   -6.7878   -0.7649   12.9300 C   0  0  0  0  0  0  0  0  0  0  0  0
   -7.0707   -0.4533   11.1855 C   0  0  0  0  0  0  0  0  0  0  0  0
   -6.2203   -0.3867    9.8119 C   0  0  0  0  0  0  0  0  0  0  0  0
   -6.7775   -0.2439    8.6102 F   0  0  0  0  0  0  0  0  0  0  0  0
   -4.8115   -0.4438   10.0519 C   0  0  0  0  0  0  0  0  0  0  0  0
   -4.5960   -0.5157   11.7899 C   0  0  0  0  0  0  0  0  0  0  0  0
   -5.5228   -0.7837   13.0562 C   0  0  0  0  0  0  0  0  0  0  0  0
   -5.2218   -0.7165   14.4019 O   0  0  0  0  0  0  0  0  0  0  0  0
   -6.0655   -1.6428   14.9565 C   0  0  0  0  0  0  0  0  0  0  0  0
   -8.6976   -2.7049   18.6283 H   0  0  0  0  0  0  0  0  0  0  0  0
   -8.7893   -2.7725   20.6737 H   0  0  0  0  0  0  0  0  0  0  0  0
   -7.1525   -2.9815   21.1322 H   0  0  0  0  0  0  0  0  0  0  0  0
   -9.7398   -2.6134   22.8804 H   0  0  0  0  0  0  0  0  0  0  0  0
   -8.9289   -1.1622   23.2270 H   0  0  0  0  0  0  0  0  0  0  0  0
   -7.4262   -0.5557   25.2904 H   0  0  0  0  0  0  0  0  0  0  0  0
   -7.1245   -1.1912   27.7036 H   0  0  0  0  0  0  0  0  0  0  0  0
   -8.7784   -5.1377   27.1635 H   0  0  0  0  0  0  0  0  0  0  0  0
   -9.2426   -4.4635   24.6274 H   0  0  0  0  0  0  0  0  0  0  0  0
   -7.9026   -3.0562   13.9267 H   0  0  0  0  0  0  0  0  0  0  0  0
   -8.1302   -0.2475   10.8975 H   0  0  0  0  0  0  0  0  0  0  0  0
   -4.0101   -0.3479    9.3389 H   0  0  0  0  0  0  0  0  0  0  0  0
   -3.6197   -0.4920   12.2972 H   0  0  0  0  0  0  0  0  0  0  0  0
   -5.2469   -2.2035   15.3231 H   0  0  0  0  0  0  0  0  0  0  0  0
   -5.7970   -2.6191   14.3009 H   0  0  0  0  0  0  0  0  0  0  0  0
  1  2  2  0
  2  3  1  0
  3  4  1  0
  4  5  1  0
  5  6  1  0
  6  7  2  0
  7  8  1  0
  8  9  2  0
  9 10  1  0
 10 11  2  0
  2 12  1  0
 12 13  2  0
 13 14  1  0
 14 15  2  0
 15 16  1  0
 16 17  1  0
 16 18  2  0
 18 19  1  0
 19 20  2  0
 20 21  1  0
 21 22  1  0
 11  6  1  0
 22 12  1  0
 20 14  1  0
  3 23  1  0
  4 24  1  0
  4 25  1  0
  5 26  1  0
  5 27  1  0
  7 28  1  0
  8 29  1  0
 10 30  1  0
 11 31  1  0
 13 32  1  0
 15 33  1  0
 18 34  1  0
 19 35  1  0
 22 36  1  0
 22 37  1  0
M  END
>  <Energy>  (668) 
1068.9954618026395

>  <compound_id>  (668) 
17173

>  <target_id>  (668) 
1

>  <reference_id>  (668) 
7

>  <inspiration_ids>  (668) 
[91, 7]

>  <energy_score>  (668) 
1033.4809239995238

>  <distance_score>  (668) 
8.944230173265133

>  <path>  (668) 
/opt/xchem-fragalysis-2/maxwin/BulkDock/SCRATCH/511023/C17173-P7/C17173-P7.minimised.mol

>  <scratch_subdir>  (668) 
/opt/xchem-fragalysis-2/maxwin/BulkDock/SCRATCH/511023/C17173-P7

>  <fragmenstein_runtime>  (668) 
8.713546991348267

>  <fragmenstein_outcome>  (668) 
too moved

>  <fragmenstein_mode>  (668) 
expansion

>  <fragmenstein_error>  (668) 


$$$$
C14364-P7
     RDKit          3D

 38 40  0  0  0  0  0  0  0  0999 V2000
  -13.3331   -2.1469   19.1601 O   0  0  0  0  0  0  0  0  0  0  0  0
  -12.2281   -1.9719   18.8639 C   0  0  0  0  0  0  0  0  0  0  0  0
  -11.0829   -2.1846   20.2319 N   0  0  0  0  0  0  0  0  0  0  0  0
  -11.3386   -2.4910   21.9932 C   0  0  0  0  0  0  0  0  0  0  0  0
  -10.9564   -1.5862   23.6013 C   0  0  0  0  0  0  0  0  0  0  0  0
  -11.8740   -1.4924   24.9220 C   0  0  0  0  0  0  0  0  0  0  0  0
  -13.0401   -0.5643   26.2523 C   0  0  0  0  0  0  0  0  0  0  0  0
  -12.5718    0.1020   27.5003 C   0  0  0  0  0  0  0  0  0  0  0  0
  -13.3330    0.5956   28.6384 C   0  0  0  0  0  0  0  0  0  0  0  0
  -14.6359    0.2940   28.7969 C   0  0  0  0  0  0  0  0  0  0  0  0
  -15.2108   -0.3737   27.8323 N   0  0  0  0  0  0  0  0  0  0  0  0
  -14.4322   -0.6855   26.6985 C   0  0  0  0  0  0  0  0  0  0  0  0
  -12.1377   -1.3229   16.9281 C   0  0  0  0  0  0  0  0  0  0  0  0
  -11.8110   -1.2818   15.5350 C   0  0  0  0  0  0  0  0  0  0  0  0
  -12.1830   -0.3204   14.0144 C   0  0  0  0  0  0  0  0  0  0  0  0
  -11.9821   -0.6841   12.6293 C   0  0  0  0  0  0  0  0  0  0  0  0
  -11.9667    0.2461   11.5871 C   0  0  0  0  0  0  0  0  0  0  0  0
  -11.5512   -0.1336   10.3660 F   0  0  0  0  0  0  0  0  0  0  0  0
  -12.2594    1.5664   11.8562 C   0  0  0  0  0  0  0  0  0  0  0  0
  -12.6189    1.9176   13.1615 C   0  0  0  0  0  0  0  0  0  0  0  0
  -12.5904    0.9666   14.1904 C   0  0  0  0  0  0  0  0  0  0  0  0
  -13.1636    1.1565   15.3935 O   0  0  0  0  0  0  0  0  0  0  0  0
  -13.5025   -0.2404   15.9477 C   0  0  0  0  0  0  0  0  0  0  0  0
  -10.1380   -2.0985   19.8595 H   0  0  0  0  0  0  0  0  0  0  0  0
  -12.4147   -2.4145   21.9842 H   0  0  0  0  0  0  0  0  0  0  0  0
  -11.1680   -3.5284   22.0979 H   0  0  0  0  0  0  0  0  0  0  0  0
  -10.4431   -0.6999   23.2695 H   0  0  0  0  0  0  0  0  0  0  0  0
  -12.3010   -2.4399   24.7288 H   0  0  0  0  0  0  0  0  0  0  0  0
  -11.5223    0.3994   27.5859 H   0  0  0  0  0  0  0  0  0  0  0  0
  -12.8972    1.3368   29.2962 H   0  0  0  0  0  0  0  0  0  0  0  0
  -15.2407    0.6303   29.6265 H   0  0  0  0  0  0  0  0  0  0  0  0
  -15.2493   -1.0980   26.1347 H   0  0  0  0  0  0  0  0  0  0  0  0
  -11.4480   -2.2201   15.1765 H   0  0  0  0  0  0  0  0  0  0  0  0
  -11.6295   -1.6688   12.3569 H   0  0  0  0  0  0  0  0  0  0  0  0
  -12.2477    2.3057   11.0633 H   0  0  0  0  0  0  0  0  0  0  0  0
  -12.9703    2.9240   13.3694 H   0  0  0  0  0  0  0  0  0  0  0  0
  -14.4483   -0.1152   16.4692 H   0  0  0  0  0  0  0  0  0  0  0  0
  -13.9278   -0.4905   15.0041 H   0  0  0  0  0  0  0  0  0  0  0  0
  1  2  2  0
  2  3  1  0
  3  4  1  0
  4  5  1  0
  5  6  2  3
  6  7  1  0
  7  8  2  0
  8  9  1  0
  9 10  2  0
 10 11  1  0
 11 12  2  0
  2 13  1  0
 13 14  2  0
 14 15  1  0
 15 16  2  0
 16 17  1  0
 17 18  1  0
 17 19  2  0
 19 20  1  0
 20 21  2  0
 21 22  1  0
 22 23  1  0
 12  7  1  0
 23 13  1  0
 21 15  1  0
  3 24  1  0
  4 25  1  0
  4 26  1  0
  5 27  1  0
  6 28  1  0
  8 29  1  0
  9 30  1  0
 10 31  1  0
 12 32  1  0
 14 33  1  0
 16 34  1  0
 19 35  1  0
 20 36  1  0
 23 37  1  0
 23 38  1  0
M  END
>  <Energy>  (669) 
712.48449429346795

>  <compound_id>  (669) 
14364

>  <target_id>  (669) 
1

>  <reference_id>  (669) 
7

>  <inspiration_ids>  (669) 
[91, 7]

>  <energy_score>  (669) 
673.0826320952292

>  <distance_score>  (669) 
9.70533007097604

>  <path>  (669) 
/opt/xchem-fragalysis-2/maxwin/BulkDock/SCRATCH/511023/C14364-P7/C14364-P7.minimised.mol

>  <scratch_subdir>  (669) 
/opt/xchem-fragalysis-2/maxwin/BulkDock/SCRATCH/511023/C14364-P7

>  <fragmenstein_runtime>  (669) 
9.418121576309204

>  <fragmenstein_outcome>  (669) 
too moved

>  <fragmenstein_mode>  (669) 
expansion

>  <fragmenstein_error>  (669) 


$$$$
C17174-P7
     RDKit          3D

 40 42  0  0  0  0  0  0  0  0999 V2000
  -18.3998    3.8563   18.5382 C   0  0  0  0  0  0  0  0  0  0  0  0
  -17.3649    3.0686   17.7410 C   0  0  0  0  0  0  0  0  0  0  0  0
  -15.9174    3.2029   18.2837 C   0  0  0  0  0  0  0  0  0  0  0  0
  -14.9318    2.9303   17.1671 N   0  0  0  0  0  0  0  0  0  0  0  0
  -15.0324    2.0706   15.9874 C   0  0  0  0  0  0  0  0  0  0  0  0
  -15.8922    1.3016   15.6508 O   0  0  0  0  0  0  0  0  0  0  0  0
  -13.8867    2.2499   14.9263 C   0  0  0  0  0  0  0  0  0  0  0  0
  -13.4652    1.2157   14.1549 C   0  0  0  0  0  0  0  0  0  0  0  0
  -12.5689    1.4548   12.9938 C   0  0  0  0  0  0  0  0  0  0  0  0
  -12.2809    0.4864   12.0113 C   0  0  0  0  0  0  0  0  0  0  0  0
  -11.4009    0.7763   10.9529 C   0  0  0  0  0  0  0  0  0  0  0  0
  -11.0644   -0.1771   10.0669 F   0  0  0  0  0  0  0  0  0  0  0  0
  -10.7941    2.0241   10.8576 C   0  0  0  0  0  0  0  0  0  0  0  0
  -11.0665    2.9907   11.8298 C   0  0  0  0  0  0  0  0  0  0  0  0
  -11.9598    2.7092   12.8763 C   0  0  0  0  0  0  0  0  0  0  0  0
  -12.1765    3.6947   13.8102 O   0  0  0  0  0  0  0  0  0  0  0  0
  -13.4694    3.6266   14.4730 C   0  0  0  0  0  0  0  0  0  0  0  0
  -15.7410    2.6800   19.7517 C   0  0  0  0  0  0  0  0  0  0  0  0
  -14.9324    3.3587   20.6827 C   0  0  0  0  0  0  0  0  0  0  0  0
  -14.9480    3.0066   22.0408 C   0  0  0  0  0  0  0  0  0  0  0  0
  -15.7254    2.0393   22.5673 N   0  0  0  0  0  0  0  0  0  0  0  0
  -16.4813    1.3671   21.6790 C   0  0  0  0  0  0  0  0  0  0  0  0
  -16.5116    1.6354   20.3024 C   0  0  0  0  0  0  0  0  0  0  0  0
  -18.5061    3.4833   19.5600 H   0  0  0  0  0  0  0  0  0  0  0  0
  -19.3795    3.7788   18.0553 H   0  0  0  0  0  0  0  0  0  0  0  0
  -18.1324    4.9168   18.5852 H   0  0  0  0  0  0  0  0  0  0  0  0
  -17.6630    2.0157   17.6832 H   0  0  0  0  0  0  0  0  0  0  0  0
  -17.4001    3.4509   16.7122 H   0  0  0  0  0  0  0  0  0  0  0  0
  -15.7767    4.2885   18.4007 H   0  0  0  0  0  0  0  0  0  0  0  0
  -14.0292    3.3853   17.1688 H   0  0  0  0  0  0  0  0  0  0  0  0
  -13.8191    0.2088   14.3206 H   0  0  0  0  0  0  0  0  0  0  0  0
  -12.7087   -0.5077   12.0698 H   0  0  0  0  0  0  0  0  0  0  0  0
  -10.0946    2.2250   10.0523 H   0  0  0  0  0  0  0  0  0  0  0  0
  -10.5862    3.9642   11.7717 H   0  0  0  0  0  0  0  0  0  0  0  0
  -14.2225    4.0329   13.7852 H   0  0  0  0  0  0  0  0  0  0  0  0
  -13.4211    4.3201   15.3142 H   0  0  0  0  0  0  0  0  0  0  0  0
  -14.3140    4.1889   20.3619 H   0  0  0  0  0  0  0  0  0  0  0  0
  -14.3305    3.5461   22.7504 H   0  0  0  0  0  0  0  0  0  0  0  0
  -17.1009    0.5784   22.0972 H   0  0  0  0  0  0  0  0  0  0  0  0
  -17.1734    1.0430   19.6770 H   0  0  0  0  0  0  0  0  0  0  0  0
  1  2  1  0
  2  3  1  0
  3  4  1  0
  4  5  1  0
  5  6  2  0
  5  7  1  0
  7  8  2  0
  8  9  1  0
  9 10  2  0
 10 11  1  0
 11 12  1  0
 11 13  2  0
 13 14  1  0
 14 15  2  0
 15 16  1  0
 16 17  1  0
  3 18  1  0
 18 19  2  0
 19 20  1  0
 20 21  2  0
 21 22  1  0
 22 23  2  0
 17  7  1  0
 23 18  1  0
 15  9  1  0
  1 24  1  0
  1 25  1  0
  1 26  1  0
  2 27  1  0
  2 28  1  0
  3 29  1  0
  4 30  1  0
  8 31  1  0
 10 32  1  0
 13 33  1  0
 14 34  1  0
 17 35  1  0
 17 36  1  0
 19 37  1  0
 20 38  1  0
 22 39  1  0
 23 40  1  0
M  END
>  <Energy>  (670) 
37.592380497663598

>  <compound_id>  (670) 
17174

>  <target_id>  (670) 
1

>  <reference_id>  (670) 
7

>  <inspiration_ids>  (670) 
[91, 7]

>  <energy_score>  (670) 
12.28639259304623

>  <distance_score>  (670) 
12.814856153104188

>  <path>  (670) 
/opt/xchem-fragalysis-2/maxwin/BulkDock/SCRATCH/511023/C17174-P7/C17174-P7.minimised.mol

>  <scratch_subdir>  (670) 
/opt/xchem-fragalysis-2/maxwin/BulkDock/SCRATCH/511023/C17174-P7

>  <fragmenstein_runtime>  (670) 
18.422248125076294

>  <fragmenstein_outcome>  (670) 
too moved

>  <fragmenstein_mode>  (670) 
expansion

>  <fragmenstein_error>  (670) 


$$$$
C46593-P7
     RDKit          3D

 37 39  0  0  0  0  0  0  0  0999 V2000
   -8.3941   -1.7428   24.2698 C   0  0  0  0  0  0  0  0  0  0  0  0
   -9.6334   -2.3394   23.7414 C   0  0  0  0  0  0  0  0  0  0  0  0
  -10.9170   -1.5798   23.5932 C   0  0  0  0  0  0  0  0  0  0  0  0
  -11.4147   -1.8322   21.7621 N   0  0  0  0  0  0  0  0  0  0  0  0
  -10.4597   -2.3594   20.3685 C   0  0  0  0  0  0  0  0  0  0  0  0
   -9.3084   -2.6987   20.3578 O   0  0  0  0  0  0  0  0  0  0  0  0
  -10.9494   -2.3279   19.0074 C   0  0  0  0  0  0  0  0  0  0  0  0
  -10.0059   -1.8431   18.0577 C   0  0  0  0  0  0  0  0  0  0  0  0
  -10.1648   -2.0675   16.5551 C   0  0  0  0  0  0  0  0  0  0  0  0
   -9.5925   -2.9390   15.5767 C   0  0  0  0  0  0  0  0  0  0  0  0
   -9.9732   -2.8934   14.2420 C   0  0  0  0  0  0  0  0  0  0  0  0
   -9.4373   -3.8238   13.4400 F   0  0  0  0  0  0  0  0  0  0  0  0
  -10.9396   -1.9176   13.8322 C   0  0  0  0  0  0  0  0  0  0  0  0
  -11.5918   -1.1699   14.8615 C   0  0  0  0  0  0  0  0  0  0  0  0
  -11.3104   -1.5106   16.2045 C   0  0  0  0  0  0  0  0  0  0  0  0
  -12.1855   -1.4679   17.2967 O   0  0  0  0  0  0  0  0  0  0  0  0
  -12.1929   -2.4076   18.5084 C   0  0  0  0  0  0  0  0  0  0  0  0
  -11.4987   -0.4158   25.1050 C   0  0  0  0  0  0  0  0  0  0  0  0
  -12.7846   -0.2085   25.9115 C   0  0  0  0  0  0  0  0  0  0  0  0
  -12.7590    0.0846   27.2437 O   0  0  0  0  0  0  0  0  0  0  0  0
  -11.5086    0.3738   27.4350 C   0  0  0  0  0  0  0  0  0  0  0  0
  -10.7529   -0.0932   26.4657 N   0  0  0  0  0  0  0  0  0  0  0  0
   -7.6474   -2.5135   24.0977 H   0  0  0  0  0  0  0  0  0  0  0  0
   -8.4173   -0.8187   23.7294 H   0  0  0  0  0  0  0  0  0  0  0  0
   -8.1204   -1.4376   25.2832 H   0  0  0  0  0  0  0  0  0  0  0  0
   -9.3939   -2.5982   22.7523 H   0  0  0  0  0  0  0  0  0  0  0  0
   -9.7366   -3.3182   24.1605 H   0  0  0  0  0  0  0  0  0  0  0  0
  -11.6144   -2.3773   23.9162 H   0  0  0  0  0  0  0  0  0  0  0  0
  -12.3197   -1.5335   21.4578 H   0  0  0  0  0  0  0  0  0  0  0  0
   -9.0428   -1.4744   18.3770 H   0  0  0  0  0  0  0  0  0  0  0  0
   -8.8879   -3.7347   15.7951 H   0  0  0  0  0  0  0  0  0  0  0  0
  -11.1612   -1.7319   12.7881 H   0  0  0  0  0  0  0  0  0  0  0  0
  -12.3957   -0.4856   14.6165 H   0  0  0  0  0  0  0  0  0  0  0  0
  -12.3931   -3.4698   18.4279 H   0  0  0  0  0  0  0  0  0  0  0  0
  -12.9318   -2.1306   19.2450 H   0  0  0  0  0  0  0  0  0  0  0  0
  -13.6392   -0.7868   25.7825 H   0  0  0  0  0  0  0  0  0  0  0  0
  -11.2444    0.9813   28.2585 H   0  0  0  0  0  0  0  0  0  0  0  0
  1  2  1  0
  2  3  1  0
  3  4  1  0
  4  5  1  0
  5  6  2  0
  5  7  1  0
  7  8  2  0
  8  9  1  0
  9 10  2  0
 10 11  1  0
 11 12  1  0
 11 13  2  0
 13 14  1  0
 14 15  2  0
 15 16  1  0
 16 17  1  0
  3 18  1  0
 18 19  2  0
 19 20  1  0
 20 21  1  0
 21 22  2  0
 17  7  1  0
 22 18  1  0
 15  9  1  0
  1 23  1  0
  1 24  1  0
  1 25  1  0
  2 26  1  0
  2 27  1  0
  3 28  1  0
  4 29  1  0
  8 30  1  0
 10 31  1  0
 13 32  1  0
 14 33  1  0
 17 34  1  0
 17 35  1  0
 19 36  1  0
 21 37  1  0
M  END
>  <Energy>  (671) 
384.75658266984146

>  <compound_id>  (671) 
46593

>  <target_id>  (671) 
1

>  <reference_id>  (671) 
7

>  <inspiration_ids>  (671) 
[91, 7]

>  <energy_score>  (671) 
349.54577554176745

>  <distance_score>  (671) 
10.437832489400481

>  <path>  (671) 
/opt/xchem-fragalysis-2/maxwin/BulkDock/SCRATCH/511023/C46593-P7/C46593-P7.minimised.mol

>  <scratch_subdir>  (671) 
/opt/xchem-fragalysis-2/maxwin/BulkDock/SCRATCH/511023/C46593-P7

>  <fragmenstein_runtime>  (671) 
14.197585821151733

>  <fragmenstein_outcome>  (671) 
too moved

>  <fragmenstein_mode>  (671) 
expansion

>  <fragmenstein_error>  (671) 


$$$$
C46594-P7
     RDKit          3D

 34 36  0  0  0  0  0  0  0  0999 V2000
   -9.4896   -2.0685   19.3524 O   0  0  0  0  0  0  0  0  0  0  0  0
  -10.5753   -2.5289   19.6400 C   0  0  0  0  0  0  0  0  0  0  0  0
  -11.2062   -2.7678   21.1640 N   0  0  0  0  0  0  0  0  0  0  0  0
  -10.4653   -2.2541   23.0443 S   0  0  0  0  0  0  0  0  0  0  0  0
  -10.4492   -0.8119   23.0995 O   0  0  0  0  0  0  0  0  0  0  0  0
  -11.4369   -2.9223   23.8776 O   0  0  0  0  0  0  0  0  0  0  0  0
   -8.6203   -2.7370   24.1164 C   0  0  0  0  0  0  0  0  0  0  0  0
   -7.8658   -1.7846   24.8655 C   0  0  0  0  0  0  0  0  0  0  0  0
   -6.9492   -2.0964   25.9009 C   0  0  0  0  0  0  0  0  0  0  0  0
   -6.8055   -3.4030   26.2854 C   0  0  0  0  0  0  0  0  0  0  0  0
   -7.6122   -4.3024   25.6315 C   0  0  0  0  0  0  0  0  0  0  0  0
   -8.5191   -3.9915   24.6362 N   0  0  0  0  0  0  0  0  0  0  0  0
  -11.5300   -2.8044   18.1387 C   0  0  0  0  0  0  0  0  0  0  0  0
  -10.9966   -2.1392   17.0340 C   0  0  0  0  0  0  0  0  0  0  0  0
  -11.3931   -2.4466   15.6334 C   0  0  0  0  0  0  0  0  0  0  0  0
  -10.8048   -2.4013   14.4174 C   0  0  0  0  0  0  0  0  0  0  0  0
  -11.5011   -1.7085   13.4053 C   0  0  0  0  0  0  0  0  0  0  0  0
  -10.9153   -1.4818   12.2171 F   0  0  0  0  0  0  0  0  0  0  0  0
  -12.8564   -1.4789   13.5465 C   0  0  0  0  0  0  0  0  0  0  0  0
  -13.4635   -2.2561   14.5247 C   0  0  0  0  0  0  0  0  0  0  0  0
  -12.6343   -2.9035   15.4461 C   0  0  0  0  0  0  0  0  0  0  0  0
  -12.9560   -4.0136   16.1612 O   0  0  0  0  0  0  0  0  0  0  0  0
  -12.2102   -4.0927   17.4757 C   0  0  0  0  0  0  0  0  0  0  0  0
  -12.1639   -3.0894   21.0835 H   0  0  0  0  0  0  0  0  0  0  0  0
   -8.0145   -0.7315   24.7291 H   0  0  0  0  0  0  0  0  0  0  0  0
   -6.4090   -1.3013   26.4057 H   0  0  0  0  0  0  0  0  0  0  0  0
   -6.1341   -3.7056   27.0776 H   0  0  0  0  0  0  0  0  0  0  0  0
   -7.5893   -5.3492   25.9176 H   0  0  0  0  0  0  0  0  0  0  0  0
  -10.2033   -1.4052   17.1358 H   0  0  0  0  0  0  0  0  0  0  0  0
   -9.7858   -2.7476   14.2671 H   0  0  0  0  0  0  0  0  0  0  0  0
  -13.4252   -0.9838   12.7704 H   0  0  0  0  0  0  0  0  0  0  0  0
  -14.5280   -2.4614   14.5049 H   0  0  0  0  0  0  0  0  0  0  0  0
  -12.9857   -4.4689   18.1486 H   0  0  0  0  0  0  0  0  0  0  0  0
  -11.4381   -4.8053   17.1795 H   0  0  0  0  0  0  0  0  0  0  0  0
  1  2  2  0
  2  3  1  0
  3  4  1  0
  4  5  2  0
  4  6  2  0
  4  7  1  0
  7  8  2  0
  8  9  1  0
  9 10  2  0
 10 11  1  0
 11 12  2  0
  2 13  1  0
 13 14  2  0
 14 15  1  0
 15 16  2  0
 16 17  1  0
 17 18  1  0
 17 19  2  0
 19 20  1  0
 20 21  2  0
 21 22  1  0
 22 23  1  0
 12  7  1  0
 23 13  1  0
 21 15  1  0
  3 24  1  0
  8 25  1  0
  9 26  1  0
 10 27  1  0
 11 28  1  0
 14 29  1  0
 16 30  1  0
 19 31  1  0
 20 32  1  0
 23 33  1  0
 23 34  1  0
M  END
>  <Energy>  (672) 
249.94513131118484

>  <compound_id>  (672) 
46594

>  <target_id>  (672) 
1

>  <reference_id>  (672) 
7

>  <inspiration_ids>  (672) 
[91, 7]

>  <energy_score>  (672) 
227.72935748266053

>  <distance_score>  (672) 
11.398949073671327

>  <path>  (672) 
/opt/xchem-fragalysis-2/maxwin/BulkDock/SCRATCH/511023/C46594-P7/C46594-P7.minimised.mol

>  <scratch_subdir>  (672) 
/opt/xchem-fragalysis-2/maxwin/BulkDock/SCRATCH/511023/C46594-P7

>  <fragmenstein_runtime>  (672) 
13.767399072647095

>  <fragmenstein_outcome>  (672) 
too moved

>  <fragmenstein_mode>  (672) 
expansion

>  <fragmenstein_error>  (672) 


$$$$
C17175-P7
     RDKit          3D

 32 35  0  0  0  0  0  0  0  0999 V2000
  -12.9630    0.2217   10.0922 F   0  0  0  0  0  0  0  0  0  0  0  0
  -11.8719   -0.3309   10.6265 C   0  0  0  0  0  0  0  0  0  0  0  0
  -10.6744   -0.1184    9.9765 C   0  0  0  0  0  0  0  0  0  0  0  0
   -9.5717   -0.5854   10.6258 C   0  0  0  0  0  0  0  0  0  0  0  0
   -9.7972   -1.4505   11.8020 C   0  0  0  0  0  0  0  0  0  0  0  0
  -10.9636   -1.8854   12.3553 C   0  0  0  0  0  0  0  0  0  0  0  0
  -11.9899   -1.0649   11.8471 C   0  0  0  0  0  0  0  0  0  0  0  0
  -10.9192   -2.8279   13.9237 C   0  0  0  0  0  0  0  0  0  0  0  0
  -10.0073   -3.4764   15.0214 C   0  0  0  0  0  0  0  0  0  0  0  0
  -10.5138   -2.6926   16.6782 C   0  0  0  0  0  0  0  0  0  0  0  0
  -11.3757   -2.8454   17.8677 N   0  0  0  0  0  0  0  0  0  0  0  0
  -10.6772   -2.4881   19.1559 C   0  0  0  0  0  0  0  0  0  0  0  0
  -11.0255   -2.6853   20.7271 C   0  0  0  0  0  0  0  0  0  0  0  0
  -10.2852   -2.4804   22.0548 C   0  0  0  0  0  0  0  0  0  0  0  0
  -10.4686   -2.3480   23.3927 C   0  0  0  0  0  0  0  0  0  0  0  0
  -11.5864   -2.7667   23.7072 N   0  0  0  0  0  0  0  0  0  0  0  0
  -12.2969   -2.8818   22.5168 C   0  0  0  0  0  0  0  0  0  0  0  0
  -12.2114   -3.0293   21.1029 C   0  0  0  0  0  0  0  0  0  0  0  0
   -9.5872   -1.7905   18.7327 N   0  0  0  0  0  0  0  0  0  0  0  0
   -9.7733   -1.5501   17.3165 O   0  0  0  0  0  0  0  0  0  0  0  0
   -8.4948   -3.5431   13.7873 C   0  0  0  0  0  0  0  0  0  0  0  0
   -8.3922   -1.7537   12.9216 O   0  0  0  0  0  0  0  0  0  0  0  0
  -10.6154    0.4981    9.0902 H   0  0  0  0  0  0  0  0  0  0  0  0
   -8.5911   -0.2274   10.3281 H   0  0  0  0  0  0  0  0  0  0  0  0
  -12.9357   -0.9516   12.3547 H   0  0  0  0  0  0  0  0  0  0  0  0
  -11.6906   -2.2093   14.4893 H   0  0  0  0  0  0  0  0  0  0  0  0
   -9.1975   -2.6098   22.2159 H   0  0  0  0  0  0  0  0  0  0  0  0
   -9.6415   -2.1274   24.0190 H   0  0  0  0  0  0  0  0  0  0  0  0
  -13.0782   -2.2943   22.8585 H   0  0  0  0  0  0  0  0  0  0  0  0
  -13.0124   -3.1633   20.3924 H   0  0  0  0  0  0  0  0  0  0  0  0
   -7.4951   -3.5669   14.1750 H   0  0  0  0  0  0  0  0  0  0  0  0
   -8.7779   -4.2700   13.0164 H   0  0  0  0  0  0  0  0  0  0  0  0
  1  2  1  0
  2  3  2  0
  3  4  1  0
  4  5  2  0
  5  6  1  0
  6  7  2  0
  6  8  1  0
  8  9  2  0
  9 10  1  0
 10 11  2  0
 11 12  1  0
 12 13  1  0
 13 14  2  0
 14 15  1  0
 15 16  2  0
 16 17  1  0
 17 18  2  0
 12 19  2  0
 19 20  1  0
  9 21  1  0
 21 22  1  0
  7  2  1  0
 20 10  1  0
 22  5  1  0
 18 13  1  0
  3 23  1  0
  4 24  1  0
  7 25  1  0
  8 26  1  0
 14 27  1  0
 15 28  1  0
 17 29  1  0
 18 30  1  0
 21 31  1  0
 21 32  1  0
M  END
>  <Energy>  (673) 
584.55639464985427

>  <compound_id>  (673) 
17175

>  <target_id>  (673) 
1

>  <reference_id>  (673) 
7

>  <inspiration_ids>  (673) 
[91, 7]

>  <energy_score>  (673) 
525.3731625781847

>  <distance_score>  (673) 
11.248550954234755

>  <path>  (673) 
/opt/xchem-fragalysis-2/maxwin/BulkDock/SCRATCH/511023/C17175-P7/C17175-P7.minimised.mol

>  <scratch_subdir>  (673) 
/opt/xchem-fragalysis-2/maxwin/BulkDock/SCRATCH/511023/C17175-P7

>  <fragmenstein_runtime>  (673) 
8.945402145385742

>  <fragmenstein_outcome>  (673) 
too moved

>  <fragmenstein_mode>  (673) 
expansion

>  <fragmenstein_error>  (673) 


$$$$
C14365-P7
     RDKit          3D

 32 35  0  0  0  0  0  0  0  0999 V2000
   -9.7287    2.8722    9.9558 F   0  0  0  0  0  0  0  0  0  0  0  0
  -10.6680    2.5700   10.8662 C   0  0  0  0  0  0  0  0  0  0  0  0
  -11.6987    1.7185   10.4983 C   0  0  0  0  0  0  0  0  0  0  0  0
  -12.6029    1.2847   11.4697 C   0  0  0  0  0  0  0  0  0  0  0  0
  -12.4332    1.6571   12.8074 C   0  0  0  0  0  0  0  0  0  0  0  0
  -11.4127    2.5034   13.1819 C   0  0  0  0  0  0  0  0  0  0  0  0
  -10.5505    3.0181   12.1896 C   0  0  0  0  0  0  0  0  0  0  0  0
  -11.0184    2.3977   14.6341 C   0  0  0  0  0  0  0  0  0  0  0  0
  -11.4008    1.9925   15.9422 C   0  0  0  0  0  0  0  0  0  0  0  0
  -11.4607    2.6701   17.7960 C   0  0  0  0  0  0  0  0  0  0  0  0
  -10.8504    2.9478   19.3297 N   0  0  0  0  0  0  0  0  0  0  0  0
  -12.0034    2.3254   20.8263 C   0  0  0  0  0  0  0  0  0  0  0  0
  -12.0160    0.8835   22.2788 C   0  0  0  0  0  0  0  0  0  0  0  0
  -12.1566   -0.7946   21.7127 C   0  0  0  0  0  0  0  0  0  0  0  0
  -11.6422   -2.1905   21.9334 C   0  0  0  0  0  0  0  0  0  0  0  0
  -10.7343   -2.3534   22.9244 C   0  0  0  0  0  0  0  0  0  0  0  0
  -10.1679   -1.2818   23.3928 N   0  0  0  0  0  0  0  0  0  0  0  0
  -10.9172   -0.0443   23.0280 C   0  0  0  0  0  0  0  0  0  0  0  0
  -13.1807    2.9220   20.3565 N   0  0  0  0  0  0  0  0  0  0  0  0
  -13.0693    2.9477   18.6573 O   0  0  0  0  0  0  0  0  0  0  0  0
  -12.8961    1.2117   15.1752 C   0  0  0  0  0  0  0  0  0  0  0  0
  -13.1711    1.0380   13.7529 O   0  0  0  0  0  0  0  0  0  0  0  0
  -11.7738    1.3709    9.4729 H   0  0  0  0  0  0  0  0  0  0  0  0
  -13.3926    0.5879   11.2002 H   0  0  0  0  0  0  0  0  0  0  0  0
   -9.6919    3.6288   12.4523 H   0  0  0  0  0  0  0  0  0  0  0  0
  -10.7336    1.3967   14.2557 H   0  0  0  0  0  0  0  0  0  0  0  0
  -13.1974   -1.0185   21.4343 H   0  0  0  0  0  0  0  0  0  0  0  0
  -12.0863   -3.0393   21.4330 H   0  0  0  0  0  0  0  0  0  0  0  0
  -10.4228   -3.2598   23.3778 H   0  0  0  0  0  0  0  0  0  0  0  0
  -11.2941   -0.2686   24.1184 H   0  0  0  0  0  0  0  0  0  0  0  0
  -13.7861    1.7194   15.5722 H   0  0  0  0  0  0  0  0  0  0  0  0
  -12.8790    0.1590   15.4726 H   0  0  0  0  0  0  0  0  0  0  0  0
  1  2  1  0
  2  3  2  0
  3  4  1  0
  4  5  2  0
  5  6  1  0
  6  7  2  0
  6  8  1  0
  8  9  2  0
  9 10  1  0
 10 11  2  0
 11 12  1  0
 12 13  1  0
 13 14  2  0
 14 15  1  0
 15 16  2  0
 16 17  1  0
 17 18  2  0
 12 19  2  0
 19 20  1  0
  9 21  1  0
 21 22  1  0
  7  2  1  0
 20 10  1  0
 22  5  1  0
 18 13  1  0
  3 23  1  0
  4 24  1  0
  7 25  1  0
  8 26  1  0
 14 27  1  0
 15 28  1  0
 16 29  1  0
 18 30  1  0
 21 31  1  0
 21 32  1  0
M  END
>  <Energy>  (674) 
931.68242522383377

>  <compound_id>  (674) 
14365

>  <target_id>  (674) 
1

>  <reference_id>  (674) 
7

>  <inspiration_ids>  (674) 
[91, 7]

>  <energy_score>  (674) 
850.2620852852485

>  <distance_score>  (674) 
11.347761758949337

>  <path>  (674) 
/opt/xchem-fragalysis-2/maxwin/BulkDock/SCRATCH/511023/C14365-P7/C14365-P7.minimised.mol

>  <scratch_subdir>  (674) 
/opt/xchem-fragalysis-2/maxwin/BulkDock/SCRATCH/511023/C14365-P7

>  <fragmenstein_runtime>  (674) 
9.452065229415894

>  <fragmenstein_outcome>  (674) 
too moved

>  <fragmenstein_mode>  (674) 
expansion

>  <fragmenstein_error>  (674) 


$$$$
C14367-P7
     RDKit          3D

 31 33  0  0  0  0  0  0  0  0999 V2000
  -13.3950   -5.7254   20.9333 O   0  0  0  0  0  0  0  0  0  0  0  0
  -12.5282   -4.8964   20.8654 C   0  0  0  0  0  0  0  0  0  0  0  0
  -11.7844   -4.1999   21.9249 N   0  0  0  0  0  0  0  0  0  0  0  0
  -11.9303   -4.2277   23.3413 C   0  0  0  0  0  0  0  0  0  0  0  0
  -11.1522   -3.3523   24.1188 C   0  0  0  0  0  0  0  0  0  0  0  0
  -11.2710   -3.3150   25.5179 C   0  0  0  0  0  0  0  0  0  0  0  0
  -12.1773   -4.1655   26.1216 C   0  0  0  0  0  0  0  0  0  0  0  0
  -12.9529   -5.0243   25.4261 N   0  0  0  0  0  0  0  0  0  0  0  0
  -12.8097   -5.0340   24.0596 C   0  0  0  0  0  0  0  0  0  0  0  0
  -12.1782   -4.3868   19.4319 C   0  0  0  0  0  0  0  0  0  0  0  0
  -12.2752   -5.1579   18.3190 C   0  0  0  0  0  0  0  0  0  0  0  0
  -11.7868   -4.6266   17.0141 C   0  0  0  0  0  0  0  0  0  0  0  0
  -11.2840   -5.4496   15.9967 C   0  0  0  0  0  0  0  0  0  0  0  0
  -10.5156   -4.8783   14.9745 C   0  0  0  0  0  0  0  0  0  0  0  0
   -9.8472   -5.6492   14.1173 F   0  0  0  0  0  0  0  0  0  0  0  0
  -10.3763   -3.5082   14.8351 C   0  0  0  0  0  0  0  0  0  0  0  0
  -10.9775   -2.6769   15.7581 C   0  0  0  0  0  0  0  0  0  0  0  0
  -11.5592   -3.2452   16.8874 C   0  0  0  0  0  0  0  0  0  0  0  0
  -11.6425   -2.3803   17.9650 O   0  0  0  0  0  0  0  0  0  0  0  0
  -11.7340   -2.9572   19.2881 C   0  0  0  0  0  0  0  0  0  0  0  0
  -11.1840   -3.5059   21.5067 H   0  0  0  0  0  0  0  0  0  0  0  0
  -10.4587   -2.6640   23.6375 H   0  0  0  0  0  0  0  0  0  0  0  0
  -10.6750   -2.6238   26.1024 H   0  0  0  0  0  0  0  0  0  0  0  0
  -12.3119   -4.1777   27.1979 H   0  0  0  0  0  0  0  0  0  0  0  0
  -13.4589   -5.7409   23.5487 H   0  0  0  0  0  0  0  0  0  0  0  0
  -12.6027   -6.1909   18.3672 H   0  0  0  0  0  0  0  0  0  0  0  0
  -11.3513   -6.5299   16.0665 H   0  0  0  0  0  0  0  0  0  0  0  0
   -9.7819   -3.1204   14.0197 H   0  0  0  0  0  0  0  0  0  0  0  0
  -10.8836   -1.6020   15.7188 H   0  0  0  0  0  0  0  0  0  0  0  0
  -10.7682   -2.7837   19.7670 H   0  0  0  0  0  0  0  0  0  0  0  0
  -12.4402   -2.3567   19.8582 H   0  0  0  0  0  0  0  0  0  0  0  0
  1  2  2  0
  2  3  1  0
  3  4  1  0
  4  5  2  0
  5  6  1  0
  6  7  2  0
  7  8  1  0
  8  9  2  0
  2 10  1  0
 10 11  2  0
 11 12  1  0
 12 13  2  0
 13 14  1  0
 14 15  1  0
 14 16  2  0
 16 17  1  0
 17 18  2  0
 18 19  1  0
 19 20  1  0
  9  4  1  0
 20 10  1  0
 18 12  1  0
  3 21  1  0
  5 22  1  0
  6 23  1  0
  7 24  1  0
  9 25  1  0
 11 26  1  0
 13 27  1  0
 16 28  1  0
 17 29  1  0
 20 30  1  0
 20 31  1  0
M  END
>  <Energy>  (675) 
52.84887208328329

>  <compound_id>  (675) 
14367

>  <target_id>  (675) 
1

>  <reference_id>  (675) 
7

>  <inspiration_ids>  (675) 
[91, 7]

>  <energy_score>  (675) 
-10.447574573382497

>  <distance_score>  (675) 
11.977158756595458

>  <path>  (675) 
/opt/xchem-fragalysis-2/maxwin/BulkDock/SCRATCH/511023/C14367-P7/C14367-P7.minimised.mol

>  <scratch_subdir>  (675) 
/opt/xchem-fragalysis-2/maxwin/BulkDock/SCRATCH/511023/C14367-P7

>  <fragmenstein_runtime>  (675) 
13.165100336074829

>  <fragmenstein_outcome>  (675) 
too moved

>  <fragmenstein_mode>  (675) 
expansion

>  <fragmenstein_error>  (675) 


$$$$
C17176-P7
     RDKit          3D

 31 33  0  0  0  0  0  0  0  0999 V2000
  -12.3321   -2.8578   19.0317 O   0  0  0  0  0  0  0  0  0  0  0  0
  -11.1768   -2.5761   19.1417 C   0  0  0  0  0  0  0  0  0  0  0  0
  -10.3126   -2.4472   20.3863 N   0  0  0  0  0  0  0  0  0  0  0  0
  -10.6999   -2.5409   22.0221 C   0  0  0  0  0  0  0  0  0  0  0  0
   -9.6580   -2.4090   23.1350 C   0  0  0  0  0  0  0  0  0  0  0  0
   -9.6928   -2.4942   24.5534 C   0  0  0  0  0  0  0  0  0  0  0  0
  -10.8172   -2.6864   25.1712 N   0  0  0  0  0  0  0  0  0  0  0  0
  -11.7957   -2.6759   24.2593 C   0  0  0  0  0  0  0  0  0  0  0  0
  -11.7975   -2.5845   22.7113 C   0  0  0  0  0  0  0  0  0  0  0  0
  -10.2074   -2.0629   17.5572 C   0  0  0  0  0  0  0  0  0  0  0  0
   -9.6070   -2.8855   16.4104 C   0  0  0  0  0  0  0  0  0  0  0  0
   -8.2145   -2.2251   15.5330 C   0  0  0  0  0  0  0  0  0  0  0  0
   -7.4409   -2.3886   14.3742 C   0  0  0  0  0  0  0  0  0  0  0  0
   -6.1189   -1.1766   13.8552 C   0  0  0  0  0  0  0  0  0  0  0  0
   -6.1985   -0.6383   12.5969 F   0  0  0  0  0  0  0  0  0  0  0  0
   -5.0000   -0.9063   14.4396 C   0  0  0  0  0  0  0  0  0  0  0  0
   -5.6293   -1.6300   15.1951 C   0  0  0  0  0  0  0  0  0  0  0  0
   -7.3058   -1.4716   15.9521 C   0  0  0  0  0  0  0  0  0  0  0  0
   -7.7463   -0.7136   17.4217 O   0  0  0  0  0  0  0  0  0  0  0  0
   -9.2517   -0.9736   17.8389 C   0  0  0  0  0  0  0  0  0  0  0  0
   -9.3603   -2.2761   20.1147 H   0  0  0  0  0  0  0  0  0  0  0  0
   -8.6196   -2.3145   22.8662 H   0  0  0  0  0  0  0  0  0  0  0  0
   -8.7876   -2.4295   25.1458 H   0  0  0  0  0  0  0  0  0  0  0  0
  -12.7410   -2.5866   24.8006 H   0  0  0  0  0  0  0  0  0  0  0  0
  -12.6334   -2.3173   22.1038 H   0  0  0  0  0  0  0  0  0  0  0  0
   -9.9295   -3.8498   16.0232 H   0  0  0  0  0  0  0  0  0  0  0  0
   -7.7779   -3.2523   13.7967 H   0  0  0  0  0  0  0  0  0  0  0  0
   -3.9854   -0.8945   14.1121 H   0  0  0  0  0  0  0  0  0  0  0  0
   -4.9780   -2.5746   15.2373 H   0  0  0  0  0  0  0  0  0  0  0  0
   -9.8556   -0.2767   17.3100 H   0  0  0  0  0  0  0  0  0  0  0  0
   -9.0663   -0.9655   18.8850 H   0  0  0  0  0  0  0  0  0  0  0  0
  1  2  2  0
  2  3  1  0
  3  4  1  0
  4  5  2  0
  5  6  1  0
  6  7  2  0
  7  8  1  0
  8  9  2  0
  2 10  1  0
 10 11  2  0
 11 12  1  0
 12 13  2  0
 13 14  1  0
 14 15  1  0
 14 16  2  0
 16 17  1  0
 17 18  2  0
 18 19  1  0
 19 20  1  0
  9  4  1  0
 20 10  1  0
 18 12  1  0
  3 21  1  0
  5 22  1  0
  6 23  1  0
  8 24  1  0
  9 25  1  0
 11 26  1  0
 13 27  1  0
 16 28  1  0
 17 29  1  0
 20 30  1  0
 20 31  1  0
M  END
>  <Energy>  (676) 
582.167286854091

>  <compound_id>  (676) 
17176

>  <target_id>  (676) 
1

>  <reference_id>  (676) 
7

>  <inspiration_ids>  (676) 
[91, 7]

>  <energy_score>  (676) 
539.5756843155632

>  <distance_score>  (676) 
11.144387835274093

>  <path>  (676) 
/opt/xchem-fragalysis-2/maxwin/BulkDock/SCRATCH/511023/C17176-P7/C17176-P7.minimised.mol

>  <scratch_subdir>  (676) 
/opt/xchem-fragalysis-2/maxwin/BulkDock/SCRATCH/511023/C17176-P7

>  <fragmenstein_runtime>  (676) 
7.024336814880371

>  <fragmenstein_outcome>  (676) 
too moved

>  <fragmenstein_mode>  (676) 
expansion

>  <fragmenstein_error>  (676) 


$$$$
C44390-P7
     RDKit          3D

 28 30  0  0  0  0  0  0  0  0999 V2000
  -11.4386    4.4394   15.0115 O   0  0  0  0  0  0  0  0  0  0  0  0
  -12.2375    3.6803   14.5331 C   0  0  0  0  0  0  0  0  0  0  0  0
  -13.4639    3.1490   15.0668 N   0  0  0  0  0  0  0  0  0  0  0  0
  -14.0473    3.2814   16.3310 C   0  0  0  0  0  0  0  0  0  0  0  0
  -13.6027    4.1077   17.4097 C   0  0  0  0  0  0  0  0  0  0  0  0
  -14.3486    3.7308   18.4999 C   0  0  0  0  0  0  0  0  0  0  0  0
  -15.2057    2.7535   18.1278 O   0  0  0  0  0  0  0  0  0  0  0  0
  -15.0465    2.4914   16.7681 N   0  0  0  0  0  0  0  0  0  0  0  0
  -11.8527    3.2114   13.0923 C   0  0  0  0  0  0  0  0  0  0  0  0
  -12.0074    2.0179   12.4733 C   0  0  0  0  0  0  0  0  0  0  0  0
  -11.2736    1.7784   11.1886 C   0  0  0  0  0  0  0  0  0  0  0  0
  -11.0827    0.5039   10.6161 C   0  0  0  0  0  0  0  0  0  0  0  0
  -10.2295    0.3364    9.5089 C   0  0  0  0  0  0  0  0  0  0  0  0
   -9.9465   -0.8886    9.0409 F   0  0  0  0  0  0  0  0  0  0  0  0
   -9.6285    1.4242    8.8937 C   0  0  0  0  0  0  0  0  0  0  0  0
   -9.8676    2.6966    9.3990 C   0  0  0  0  0  0  0  0  0  0  0  0
  -10.6541    2.8600   10.5491 C   0  0  0  0  0  0  0  0  0  0  0  0
  -10.8096    4.1426   10.9918 O   0  0  0  0  0  0  0  0  0  0  0  0
  -10.9864    4.2683   12.4115 C   0  0  0  0  0  0  0  0  0  0  0  0
  -13.8389    2.4723   14.4185 H   0  0  0  0  0  0  0  0  0  0  0  0
  -12.7961    4.8257   17.3998 H   0  0  0  0  0  0  0  0  0  0  0  0
  -14.3705    4.0189   19.5397 H   0  0  0  0  0  0  0  0  0  0  0  0
  -12.5204    1.1787   12.9268 H   0  0  0  0  0  0  0  0  0  0  0  0
  -11.5173   -0.3846   11.0655 H   0  0  0  0  0  0  0  0  0  0  0  0
   -8.9810    1.2734    8.0372 H   0  0  0  0  0  0  0  0  0  0  0  0
   -9.4101    3.5641    8.9310 H   0  0  0  0  0  0  0  0  0  0  0  0
   -9.9897    4.2905   12.8708 H   0  0  0  0  0  0  0  0  0  0  0  0
  -11.4398    5.2557   12.5586 H   0  0  0  0  0  0  0  0  0  0  0  0
  1  2  2  0
  2  3  1  0
  3  4  1  0
  4  5  1  0
  5  6  2  0
  6  7  1  0
  7  8  1  0
  2  9  1  0
  9 10  2  0
 10 11  1  0
 11 12  2  0
 12 13  1  0
 13 14  1  0
 13 15  2  0
 15 16  1  0
 16 17  2  0
 17 18  1  0
 18 19  1  0
  8  4  2  0
 19  9  1  0
 17 11  1  0
  3 20  1  0
  5 21  1  0
  6 22  1  0
 10 23  1  0
 12 24  1  0
 15 25  1  0
 16 26  1  0
 19 27  1  0
 19 28  1  0
M  END
>  <Energy>  (677) 
-9.5534188922872332

>  <compound_id>  (677) 
44390

>  <target_id>  (677) 
1

>  <reference_id>  (677) 
7

>  <inspiration_ids>  (677) 
[91, 7]

>  <energy_score>  (677) 
-5.574631166168729

>  <distance_score>  (677) 
12.797633251553194

>  <path>  (677) 
/opt/xchem-fragalysis-2/maxwin/BulkDock/SCRATCH/511023/C44390-P7/C44390-P7.minimised.mol

>  <scratch_subdir>  (677) 
/opt/xchem-fragalysis-2/maxwin/BulkDock/SCRATCH/511023/C44390-P7

>  <fragmenstein_runtime>  (677) 
9.08496356010437

>  <fragmenstein_outcome>  (677) 
too moved

>  <fragmenstein_mode>  (677) 
expansion

>  <fragmenstein_error>  (677) 


$$$$
C46595-P7
     RDKit          3D

 31 33  0  0  0  0  0  0  0  0999 V2000
  -10.8281   -1.6008   16.3081 O   0  0  0  0  0  0  0  0  0  0  0  0
  -11.5742   -2.3198   15.7084 C   0  0  0  0  0  0  0  0  0  0  0  0
  -12.1781   -3.5684   16.0851 N   0  0  0  0  0  0  0  0  0  0  0  0
  -12.1555   -4.2859   17.3209 C   0  0  0  0  0  0  0  0  0  0  0  0
  -11.9272   -3.5440   18.5166 C   0  0  0  0  0  0  0  0  0  0  0  0
  -12.6544   -3.8147   19.6756 C   0  0  0  0  0  0  0  0  0  0  0  0
  -13.5438   -4.8810   19.6475 C   0  0  0  0  0  0  0  0  0  0  0  0
  -13.5400   -5.6951   18.5294 C   0  0  0  0  0  0  0  0  0  0  0  0
  -12.8793   -5.4218   17.3690 N   0  0  0  0  0  0  0  0  0  0  0  0
  -12.0402   -1.7483   14.3496 C   0  0  0  0  0  0  0  0  0  0  0  0
  -11.2616   -1.7544   13.2607 C   0  0  0  0  0  0  0  0  0  0  0  0
  -11.5786   -0.9339   12.0786 C   0  0  0  0  0  0  0  0  0  0  0  0
  -10.8659   -1.0377   10.8717 C   0  0  0  0  0  0  0  0  0  0  0  0
  -10.9578   -0.0809    9.8718 C   0  0  0  0  0  0  0  0  0  0  0  0
  -10.1926   -0.1933    8.7727 F   0  0  0  0  0  0  0  0  0  0  0  0
  -11.7994    1.0020   10.0490 C   0  0  0  0  0  0  0  0  0  0  0  0
  -12.5513    1.1019   11.2321 C   0  0  0  0  0  0  0  0  0  0  0  0
  -12.4465    0.1315   12.2401 C   0  0  0  0  0  0  0  0  0  0  0  0
  -13.1406    0.3148   13.4054 O   0  0  0  0  0  0  0  0  0  0  0  0
  -13.2320   -0.8280   14.3064 C   0  0  0  0  0  0  0  0  0  0  0  0
  -12.6865   -3.9369   15.3007 H   0  0  0  0  0  0  0  0  0  0  0  0
  -11.3932   -2.5996   18.4791 H   0  0  0  0  0  0  0  0  0  0  0  0
  -12.5613   -3.1678   20.5440 H   0  0  0  0  0  0  0  0  0  0  0  0
  -14.1555   -5.1437   20.5033 H   0  0  0  0  0  0  0  0  0  0  0  0
  -14.1346   -6.6042   18.5077 H   0  0  0  0  0  0  0  0  0  0  0  0
  -10.3258   -2.2931   13.2772 H   0  0  0  0  0  0  0  0  0  0  0  0
  -10.1756   -1.8438   10.7077 H   0  0  0  0  0  0  0  0  0  0  0  0
  -11.8670    1.7669    9.2830 H   0  0  0  0  0  0  0  0  0  0  0  0
  -13.2071    1.9563   11.3813 H   0  0  0  0  0  0  0  0  0  0  0  0
  -13.4205   -0.4037   15.2927 H   0  0  0  0  0  0  0  0  0  0  0  0
  -14.1263   -1.3985   14.0277 H   0  0  0  0  0  0  0  0  0  0  0  0
  1  2  2  0
  2  3  1  0
  3  4  1  0
  4  5  2  0
  5  6  1  0
  6  7  2  0
  7  8  1  0
  8  9  2  0
  2 10  1  0
 10 11  2  0
 11 12  1  0
 12 13  2  0
 13 14  1  0
 14 15  1  0
 14 16  2  0
 16 17  1  0
 17 18  2  0
 18 19  1  0
 19 20  1  0
  9  4  1  0
 20 10  1  0
 18 12  1  0
  3 21  1  0
  5 22  1  0
  6 23  1  0
  7 24  1  0
  8 25  1  0
 11 26  1  0
 13 27  1  0
 16 28  1  0
 17 29  1  0
 20 30  1  0
 20 31  1  0
M  END
>  <Energy>  (678) 
13.950278669211157

>  <compound_id>  (678) 
46595

>  <target_id>  (678) 
1

>  <reference_id>  (678) 
7

>  <inspiration_ids>  (678) 
[91, 7]

>  <energy_score>  (678) 
-8.106297273933876

>  <distance_score>  (678) 
13.055510936695672

>  <path>  (678) 
/opt/xchem-fragalysis-2/maxwin/BulkDock/SCRATCH/511023/C46595-P7/C46595-P7.minimised.mol

>  <scratch_subdir>  (678) 
/opt/xchem-fragalysis-2/maxwin/BulkDock/SCRATCH/511023/C46595-P7

>  <fragmenstein_runtime>  (678) 
13.36039400100708

>  <fragmenstein_outcome>  (678) 
too moved

>  <fragmenstein_mode>  (678) 
expansion

>  <fragmenstein_error>  (678) 


$$$$
C17177-P7
     RDKit          3D

 43 45  0  0  0  0  0  0  0  0999 V2000
  -12.7475   -3.8214   21.1013 C   0  0  0  0  0  0  0  0  0  0  0  0
  -14.1495   -4.3769   21.3135 C   0  0  0  0  0  0  0  0  0  0  0  0
  -15.3403   -3.1436   21.6455 C   0  0  0  0  0  0  0  0  0  0  0  0
  -15.0251   -2.6890   23.3660 C   0  0  0  0  0  0  0  0  0  0  0  0
  -14.1730   -3.4558   24.1965 C   0  0  0  0  0  0  0  0  0  0  0  0
  -14.0718   -3.1669   25.5642 C   0  0  0  0  0  0  0  0  0  0  0  0
  -14.7556   -2.1875   26.1862 N   0  0  0  0  0  0  0  0  0  0  0  0
  -15.6031   -1.4848   25.4041 C   0  0  0  0  0  0  0  0  0  0  0  0
  -15.7841   -1.6982   24.0278 C   0  0  0  0  0  0  0  0  0  0  0  0
  -15.1892   -2.1497   19.9178 N   0  0  0  0  0  0  0  0  0  0  0  0
  -15.4952   -2.5072   21.1204 C   0  0  0  0  0  0  0  0  0  0  0  0
  -15.1973   -2.8670   18.4893 C   0  0  0  0  0  0  0  0  0  0  0  0
  -15.3902   -3.9665   18.1693 O   0  0  0  0  0  0  0  0  0  0  0  0
  -14.8829   -1.8614   17.3665 C   0  0  0  0  0  0  0  0  0  0  0  0
  -14.0137   -2.2159   16.3931 C   0  0  0  0  0  0  0  0  0  0  0  0
  -13.8437   -1.3486   15.2143 C   0  0  0  0  0  0  0  0  0  0  0  0
  -12.9231   -1.6300   14.2072 C   0  0  0  0  0  0  0  0  0  0  0  0
  -12.7793   -0.8118   13.0713 C   0  0  0  0  0  0  0  0  0  0  0  0
  -11.8649   -1.1092   12.1266 F   0  0  0  0  0  0  0  0  0  0  0  0
  -13.5306    0.3375   12.9451 C   0  0  0  0  0  0  0  0  0  0  0  0
  -14.4393    0.6480   13.9589 C   0  0  0  0  0  0  0  0  0  0  0  0
  -14.6006   -0.1941   15.0782 C   0  0  0  0  0  0  0  0  0  0  0  0
  -15.5084    0.1996   16.0216 O   0  0  0  0  0  0  0  0  0  0  0  0
  -15.7121   -0.6191   17.2106 C   0  0  0  0  0  0  0  0  0  0  0  0
  -12.3830   -3.2770   21.9752 H   0  0  0  0  0  0  0  0  0  0  0  0
  -12.7072   -3.1445   20.2436 H   0  0  0  0  0  0  0  0  0  0  0  0
  -12.0557   -4.6427   20.8957 H   0  0  0  0  0  0  0  0  0  0  0  0
  -14.4692   -4.8888   20.3979 H   0  0  0  0  0  0  0  0  0  0  0  0
  -14.1789   -5.1343   22.1013 H   0  0  0  0  0  0  0  0  0  0  0  0
  -16.2662   -3.9659   21.7682 H   0  0  0  0  0  0  0  0  0  0  0  0
  -13.5628   -4.2690   23.8285 H   0  0  0  0  0  0  0  0  0  0  0  0
  -13.4112   -3.7464   26.2029 H   0  0  0  0  0  0  0  0  0  0  0  0
  -16.1718   -0.7150   25.9201 H   0  0  0  0  0  0  0  0  0  0  0  0
  -16.5145   -1.0871   23.5096 H   0  0  0  0  0  0  0  0  0  0  0  0
  -16.6369   -2.6452   20.5760 H   0  0  0  0  0  0  0  0  0  0  0  0
  -14.7896   -1.4984   21.3692 H   0  0  0  0  0  0  0  0  0  0  0  0
  -16.2726   -1.5942   21.5103 H   0  0  0  0  0  0  0  0  0  0  0  0
  -13.4632   -3.1500   16.4387 H   0  0  0  0  0  0  0  0  0  0  0  0
  -12.2576   -2.4707   14.3478 H   0  0  0  0  0  0  0  0  0  0  0  0
  -13.4075    0.9830   12.0828 H   0  0  0  0  0  0  0  0  0  0  0  0
  -15.0401    1.5519   13.8858 H   0  0  0  0  0  0  0  0  0  0  0  0
  -15.5586    0.0425   18.0689 H   0  0  0  0  0  0  0  0  0  0  0  0
  -16.7727   -0.8961   17.2085 H   0  0  0  0  0  0  0  0  0  0  0  0
  1  2  1  0
  2  3  1  0
  3  4  1  0
  4  5  2  0
  5  6  1  0
  6  7  2  0
  7  8  1  0
  8  9  2  0
  3 10  1  0
 10 11  1  0
 10 12  1  0
 12 13  2  0
 12 14  1  0
 14 15  2  0
 15 16  1  0
 16 17  2  0
 17 18  1  0
 18 19  1  0
 18 20  2  0
 20 21  1  0
 21 22  2  0
 22 23  1  0
 23 24  1  0
  9  4  1  0
 24 14  1  0
 22 16  1  0
  1 25  1  0
  1 26  1  0
  1 27  1  0
  2 28  1  0
  2 29  1  0
  3 30  1  0
  5 31  1  0
  6 32  1  0
  8 33  1  0
  9 34  1  0
 11 35  1  0
 11 36  1  0
 11 37  1  0
 15 38  1  0
 17 39  1  0
 20 40  1  0
 21 41  1  0
 24 42  1  0
 24 43  1  0
M  END
>  <Energy>  (679) 
812.58324397811134

>  <compound_id>  (679) 
17177

>  <target_id>  (679) 
1

>  <reference_id>  (679) 
7

>  <inspiration_ids>  (679) 
[91, 7]

>  <energy_score>  (679) 
745.4736690255876

>  <distance_score>  (679) 
12.394879743182075

>  <path>  (679) 
/opt/xchem-fragalysis-2/maxwin/BulkDock/SCRATCH/511023/C17177-P7/C17177-P7.minimised.mol

>  <scratch_subdir>  (679) 
/opt/xchem-fragalysis-2/maxwin/BulkDock/SCRATCH/511023/C17177-P7

>  <fragmenstein_runtime>  (679) 
22.642348289489746

>  <fragmenstein_outcome>  (679) 
too moved

>  <fragmenstein_mode>  (679) 
expansion

>  <fragmenstein_error>  (679) 


$$$$
C46596-P7
     RDKit          3D

 41 44  0  0  0  0  0  0  0  0999 V2000
  -11.5938   -1.5132   20.8495 O   0  0  0  0  0  0  0  0  0  0  0  0
  -11.9666   -2.5586   21.2260 C   0  0  0  0  0  0  0  0  0  0  0  0
  -11.9067   -3.1440   22.5222 N   0  0  0  0  0  0  0  0  0  0  0  0
  -11.3239   -2.5994   23.8709 C   0  0  0  0  0  0  0  0  0  0  0  0
  -11.9576   -2.8616   25.4684 C   0  0  0  0  0  0  0  0  0  0  0  0
  -13.1493   -1.5489   26.5342 C   0  0  0  0  0  0  0  0  0  0  0  0
  -12.6297   -1.2209   28.3498 C   0  0  0  0  0  0  0  0  0  0  0  0
  -11.4376   -2.5162   29.1760 C   0  0  0  0  0  0  0  0  0  0  0  0
  -10.3942   -3.8840   28.4080 C   0  0  0  0  0  0  0  0  0  0  0  0
  -11.0560   -4.1997   26.7187 N   0  0  0  0  0  0  0  0  0  0  0  0
  -10.9068   -5.2897   29.0009 C   0  0  0  0  0  0  0  0  0  0  0  0
  -12.1906   -4.9322   29.8026 C   0  0  0  0  0  0  0  0  0  0  0  0
  -12.2338   -3.4525   30.2075 C   0  0  0  0  0  0  0  0  0  0  0  0
  -12.7204   -3.3851   19.9599 C   0  0  0  0  0  0  0  0  0  0  0  0
  -12.1587   -4.3023   19.1352 C   0  0  0  0  0  0  0  0  0  0  0  0
  -12.5457   -4.5119   17.7233 C   0  0  0  0  0  0  0  0  0  0  0  0
  -11.9812   -5.5121   16.9127 C   0  0  0  0  0  0  0  0  0  0  0  0
  -12.4040   -5.6583   15.5997 C   0  0  0  0  0  0  0  0  0  0  0  0
  -11.7889   -6.5194   14.7725 F   0  0  0  0  0  0  0  0  0  0  0  0
  -13.4684   -4.9007   15.1369 C   0  0  0  0  0  0  0  0  0  0  0  0
  -13.9114   -3.7980   15.8640 C   0  0  0  0  0  0  0  0  0  0  0  0
  -13.4297   -3.6040   17.1511 C   0  0  0  0  0  0  0  0  0  0  0  0
  -13.8519   -2.5132   17.8569 O   0  0  0  0  0  0  0  0  0  0  0  0
  -13.9697   -2.8093   19.2695 C   0  0  0  0  0  0  0  0  0  0  0  0
  -12.3982   -4.0246   22.5080 H   0  0  0  0  0  0  0  0  0  0  0  0
  -11.0278   -1.5542   23.7675 H   0  0  0  0  0  0  0  0  0  0  0  0
  -10.3120   -3.0053   23.8907 H   0  0  0  0  0  0  0  0  0  0  0  0
  -13.2240   -0.5637   26.0035 H   0  0  0  0  0  0  0  0  0  0  0  0
  -13.1267   -0.4316   28.9083 H   0  0  0  0  0  0  0  0  0  0  0  0
  -11.2714   -5.9016   28.1588 H   0  0  0  0  0  0  0  0  0  0  0  0
  -10.1203   -5.9568   29.3150 H   0  0  0  0  0  0  0  0  0  0  0  0
  -13.0534   -5.1696   29.1594 H   0  0  0  0  0  0  0  0  0  0  0  0
  -12.4214   -5.5104   30.6750 H   0  0  0  0  0  0  0  0  0  0  0  0
  -13.2310   -3.2354   29.8880 H   0  0  0  0  0  0  0  0  0  0  0  0
  -12.0111   -3.2337   31.2495 H   0  0  0  0  0  0  0  0  0  0  0  0
  -11.3732   -4.9559   19.4262 H   0  0  0  0  0  0  0  0  0  0  0  0
  -11.2250   -6.1883   17.2952 H   0  0  0  0  0  0  0  0  0  0  0  0
  -13.9239   -5.1436   14.1835 H   0  0  0  0  0  0  0  0  0  0  0  0
  -14.6623   -3.1284   15.4562 H   0  0  0  0  0  0  0  0  0  0  0  0
  -14.7717   -3.5586   19.3724 H   0  0  0  0  0  0  0  0  0  0  0  0
  -14.4071   -1.9343   19.7297 H   0  0  0  0  0  0  0  0  0  0  0  0
  1  2  2  0
  2  3  1  0
  3  4  1  0
  4  5  1  0
  5  6  2  0
  6  7  1  0
  7  8  2  0
  8  9  1  0
  9 10  2  0
  9 11  1  0
 11 12  1  0
 12 13  1  0
  2 14  1  0
 14 15  2  0
 15 16  1  0
 16 17  2  0
 17 18  1  0
 18 19  1  0
 18 20  2  0
 20 21  1  0
 21 22  2  0
 22 23  1  0
 23 24  1  0
 10  5  1  0
 24 14  1  0
 13  8  1  0
 22 16  1  0
  3 25  1  0
  4 26  1  0
  4 27  1  0
  6 28  1  0
  7 29  1  0
 11 30  1  0
 11 31  1  0
 12 32  1  0
 12 33  1  0
 13 34  1  0
 13 35  1  0
 15 36  1  0
 17 37  1  0
 20 38  1  0
 21 39  1  0
 24 40  1  0
 24 41  1  0
M  END
>  <Energy>  (680) 
789.86405377282756

>  <compound_id>  (680) 
46596

>  <target_id>  (680) 
1

>  <reference_id>  (680) 
7

>  <inspiration_ids>  (680) 
[91, 7]

>  <energy_score>  (680) 
743.2608422844025

>  <distance_score>  (680) 
11.37855296691174

>  <path>  (680) 
/opt/xchem-fragalysis-2/maxwin/BulkDock/SCRATCH/511023/C46596-P7/C46596-P7.minimised.mol

>  <scratch_subdir>  (680) 
/opt/xchem-fragalysis-2/maxwin/BulkDock/SCRATCH/511023/C46596-P7

>  <fragmenstein_runtime>  (680) 
15.853400707244873

>  <fragmenstein_outcome>  (680) 
too moved

>  <fragmenstein_mode>  (680) 
expansion

>  <fragmenstein_error>  (680) 


$$$$
C42618-P7
     RDKit          3D

 31 33  0  0  0  0  0  0  0  0999 V2000
   -3.5940   -6.2880   20.0319 O   0  0  0  0  0  0  0  0  0  0  0  0
   -3.9648   -5.1709   20.2704 C   0  0  0  0  0  0  0  0  0  0  0  0
   -4.2980   -4.5378   21.5244 N   0  0  0  0  0  0  0  0  0  0  0  0
   -4.1950   -5.0272   22.9079 C   0  0  0  0  0  0  0  0  0  0  0  0
   -5.1391   -4.5784   24.0287 C   0  0  0  0  0  0  0  0  0  0  0  0
   -6.3947   -5.0993   24.3107 C   0  0  0  0  0  0  0  0  0  0  0  0
   -6.9652   -4.6003   25.8557 S   0  0  0  0  0  0  0  0  0  0  0  0
   -5.4942   -3.7694   26.0921 C   0  0  0  0  0  0  0  0  0  0  0  0
   -4.6382   -3.7990   25.0888 N   0  0  0  0  0  0  0  0  0  0  0  0
   -3.9727   -4.2678   19.0159 C   0  0  0  0  0  0  0  0  0  0  0  0
   -4.3206   -4.8241   17.8257 C   0  0  0  0  0  0  0  0  0  0  0  0
   -3.7606   -4.2330   16.5881 C   0  0  0  0  0  0  0  0  0  0  0  0
   -3.5463   -4.9834   15.4255 C   0  0  0  0  0  0  0  0  0  0  0  0
   -2.7668   -4.4477   14.3973 C   0  0  0  0  0  0  0  0  0  0  0  0
   -2.5188   -5.1784   13.2959 F   0  0  0  0  0  0  0  0  0  0  0  0
   -2.2594   -3.1500   14.4734 C   0  0  0  0  0  0  0  0  0  0  0  0
   -2.5575   -2.3583   15.5770 C   0  0  0  0  0  0  0  0  0  0  0  0
   -3.2594   -2.9238   16.6412 C   0  0  0  0  0  0  0  0  0  0  0  0
   -3.3765   -2.1903   17.7968 O   0  0  0  0  0  0  0  0  0  0  0  0
   -3.1155   -3.0239   18.9593 C   0  0  0  0  0  0  0  0  0  0  0  0
   -4.4954   -3.5489   21.3562 H   0  0  0  0  0  0  0  0  0  0  0  0
   -4.2284   -6.1224   22.8522 H   0  0  0  0  0  0  0  0  0  0  0  0
   -3.1730   -4.7767   23.2184 H   0  0  0  0  0  0  0  0  0  0  0  0
   -6.9680   -5.7941   23.7145 H   0  0  0  0  0  0  0  0  0  0  0  0
   -5.2801   -3.2556   27.0186 H   0  0  0  0  0  0  0  0  0  0  0  0
   -4.7780   -5.8069   17.7683 H   0  0  0  0  0  0  0  0  0  0  0  0
   -3.8994   -6.0065   15.3439 H   0  0  0  0  0  0  0  0  0  0  0  0
   -1.6448   -2.7575   13.6705 H   0  0  0  0  0  0  0  0  0  0  0  0
   -2.1793   -1.3430   15.6478 H   0  0  0  0  0  0  0  0  0  0  0  0
   -3.2236   -2.3869   19.8334 H   0  0  0  0  0  0  0  0  0  0  0  0
   -2.0542   -3.3113   18.9460 H   0  0  0  0  0  0  0  0  0  0  0  0
  1  2  2  0
  2  3  1  0
  3  4  1  0
  4  5  1  0
  5  6  2  0
  6  7  1  0
  7  8  1  0
  8  9  2  0
  2 10  1  0
 10 11  2  0
 11 12  1  0
 12 13  2  0
 13 14  1  0
 14 15  1  0
 14 16  2  0
 16 17  1  0
 17 18  2  0
 18 19  1  0
 19 20  1  0
  9  5  1  0
 20 10  1  0
 18 12  1  0
  3 21  1  0
  4 22  1  0
  4 23  1  0
  6 24  1  0
  8 25  1  0
 11 26  1  0
 13 27  1  0
 16 28  1  0
 17 29  1  0
 20 30  1  0
 20 31  1  0
M  END
>  <Energy>  (681) 
31.00584216316804

>  <compound_id>  (681) 
42618

>  <target_id>  (681) 
1

>  <reference_id>  (681) 
7

>  <inspiration_ids>  (681) 
[91, 7]

>  <energy_score>  (681) 
-16.084903205929777

>  <distance_score>  (681) 
11.588170737355263

>  <path>  (681) 
/opt/xchem-fragalysis-2/maxwin/BulkDock/SCRATCH/511023/C42618-P7/C42618-P7.minimised.mol

>  <scratch_subdir>  (681) 
/opt/xchem-fragalysis-2/maxwin/BulkDock/SCRATCH/511023/C42618-P7

>  <fragmenstein_runtime>  (681) 
11.876279592514038

>  <fragmenstein_outcome>  (681) 
too moved

>  <fragmenstein_mode>  (681) 
expansion

>  <fragmenstein_error>  (681) 


$$$$
C46597-P7
     RDKit          3D

 34 36  0  0  0  0  0  0  0  0999 V2000
  -11.3347   -2.7383   24.6304 O   0  0  0  0  0  0  0  0  0  0  0  0
  -11.4291   -1.6081   24.2633 C   0  0  0  0  0  0  0  0  0  0  0  0
  -11.8046   -0.1855   25.2807 N   0  0  0  0  0  0  0  0  0  0  0  0
  -12.2661   -0.0682   27.0869 C   0  0  0  0  0  0  0  0  0  0  0  0
  -13.1146    0.5975   28.5060 C   0  0  0  0  0  0  0  0  0  0  0  0
  -12.9294    1.9013   29.0568 C   0  0  0  0  0  0  0  0  0  0  0  0
  -13.6549    2.3878   30.1613 C   0  0  0  0  0  0  0  0  0  0  0  0
  -14.5527    1.5600   30.7938 C   0  0  0  0  0  0  0  0  0  0  0  0
  -14.6154    0.2675   30.3269 C   0  0  0  0  0  0  0  0  0  0  0  0
  -13.8794   -0.2378   29.2833 N   0  0  0  0  0  0  0  0  0  0  0  0
  -11.2875   -1.5479   22.4695 C   0  0  0  0  0  0  0  0  0  0  0  0
  -12.0445   -1.3974   21.3337 C   0  0  0  0  0  0  0  0  0  0  0  0
  -11.9489   -2.2468   19.8446 C   0  0  0  0  0  0  0  0  0  0  0  0
  -12.0380   -1.9425   18.4691 C   0  0  0  0  0  0  0  0  0  0  0  0
  -11.0101   -1.8136   17.4580 C   0  0  0  0  0  0  0  0  0  0  0  0
  -11.2087   -1.5029   16.1638 F   0  0  0  0  0  0  0  0  0  0  0  0
   -9.7948   -1.6052   17.9702 C   0  0  0  0  0  0  0  0  0  0  0  0
   -9.6771   -2.1524   19.2690 C   0  0  0  0  0  0  0  0  0  0  0  0
  -10.7680   -2.7446   19.9883 C   0  0  0  0  0  0  0  0  0  0  0  0
  -10.9965   -3.5375   21.0159 O   0  0  0  0  0  0  0  0  0  0  0  0
  -10.9011   -2.9041   22.2802 C   0  0  0  0  0  0  0  0  0  0  0  0
  -11.9056    0.6078   24.7122 H   0  0  0  0  0  0  0  0  0  0  0  0
  -13.2005    0.1715   26.6120 H   0  0  0  0  0  0  0  0  0  0  0  0
  -11.4129    0.5385   27.3137 H   0  0  0  0  0  0  0  0  0  0  0  0
  -12.1654    2.5630   28.6730 H   0  0  0  0  0  0  0  0  0  0  0  0
  -13.4806    3.3986   30.5159 H   0  0  0  0  0  0  0  0  0  0  0  0
  -15.1506    1.8915   31.6319 H   0  0  0  0  0  0  0  0  0  0  0  0
  -15.3170   -0.4313   30.7655 H   0  0  0  0  0  0  0  0  0  0  0  0
  -12.9460   -0.9123   21.5493 H   0  0  0  0  0  0  0  0  0  0  0  0
  -12.8613   -1.3279   18.2328 H   0  0  0  0  0  0  0  0  0  0  0  0
   -9.0318   -1.0731   17.4277 H   0  0  0  0  0  0  0  0  0  0  0  0
   -8.7137   -2.1026   19.7064 H   0  0  0  0  0  0  0  0  0  0  0  0
   -9.9374   -2.9165   22.7933 H   0  0  0  0  0  0  0  0  0  0  0  0
  -11.6784   -3.4680   22.7761 H   0  0  0  0  0  0  0  0  0  0  0  0
  1  2  2  0
  2  3  1  0
  3  4  1  0
  4  5  1  0
  5  6  2  0
  6  7  1  0
  7  8  2  0
  8  9  1  0
  9 10  2  0
  2 11  1  0
 11 12  2  0
 12 13  1  0
 13 14  2  0
 14 15  1  0
 15 16  1  0
 15 17  2  0
 17 18  1  0
 18 19  2  0
 19 20  1  0
 20 21  1  0
 10  5  1  0
 21 11  1  0
 19 13  1  0
  3 22  1  0
  4 23  1  0
  4 24  1  0
  6 25  1  0
  7 26  1  0
  8 27  1  0
  9 28  1  0
 12 29  1  0
 14 30  1  0
 17 31  1  0
 18 32  1  0
 21 33  1  0
 21 34  1  0
M  END
>  <Energy>  (682) 
456.33917897101463

>  <compound_id>  (682) 
46597

>  <target_id>  (682) 
1

>  <reference_id>  (682) 
7

>  <inspiration_ids>  (682) 
[91, 7]

>  <energy_score>  (682) 
416.07442917933275

>  <distance_score>  (682) 
11.723722656938847

>  <path>  (682) 
/opt/xchem-fragalysis-2/maxwin/BulkDock/SCRATCH/511023/C46597-P7/C46597-P7.minimised.mol

>  <scratch_subdir>  (682) 
/opt/xchem-fragalysis-2/maxwin/BulkDock/SCRATCH/511023/C46597-P7

>  <fragmenstein_runtime>  (682) 
13.72621464729309

>  <fragmenstein_outcome>  (682) 
too moved

>  <fragmenstein_mode>  (682) 
expansion

>  <fragmenstein_error>  (682) 


$$$$
C17178-P7
     RDKit          3D

 40 42  0  0  0  0  0  0  0  0999 V2000
  -11.5185   -2.2589   21.7576 C   0  0  0  0  0  0  0  0  0  0  0  0
  -11.7005   -3.6429   21.2299 C   0  0  0  0  0  0  0  0  0  0  0  0
  -11.1795   -4.1985   20.0184 N   0  0  0  0  0  0  0  0  0  0  0  0
  -10.0250   -5.8958   19.8987 C   0  0  0  0  0  0  0  0  0  0  0  0
   -8.4406   -6.5941   19.6182 C   0  0  0  0  0  0  0  0  0  0  0  0
   -7.6324   -7.1496   20.5954 C   0  0  0  0  0  0  0  0  0  0  0  0
   -6.4077   -7.7638   20.3405 C   0  0  0  0  0  0  0  0  0  0  0  0
   -5.9493   -7.9711   19.1148 N   0  0  0  0  0  0  0  0  0  0  0  0
   -6.8274   -7.6902   18.1471 C   0  0  0  0  0  0  0  0  0  0  0  0
   -8.0722   -7.1017   18.3546 C   0  0  0  0  0  0  0  0  0  0  0  0
  -11.5981   -3.3734   18.8374 C   0  0  0  0  0  0  0  0  0  0  0  0
  -10.9558   -2.4212   18.3819 O   0  0  0  0  0  0  0  0  0  0  0  0
  -12.8477   -3.6410   17.9558 C   0  0  0  0  0  0  0  0  0  0  0  0
  -12.5384   -4.4209   16.8920 C   0  0  0  0  0  0  0  0  0  0  0  0
  -11.9839   -3.6336   15.7982 C   0  0  0  0  0  0  0  0  0  0  0  0
  -10.7586   -3.9939   15.2580 C   0  0  0  0  0  0  0  0  0  0  0  0
  -10.2426   -3.1896   14.2877 C   0  0  0  0  0  0  0  0  0  0  0  0
   -9.0382   -3.5112   13.8003 F   0  0  0  0  0  0  0  0  0  0  0  0
  -11.0177   -2.1230   13.7593 C   0  0  0  0  0  0  0  0  0  0  0  0
  -12.1928   -1.7025   14.3692 C   0  0  0  0  0  0  0  0  0  0  0  0
  -12.6377   -2.4525   15.4355 C   0  0  0  0  0  0  0  0  0  0  0  0
  -13.7422   -2.0671   16.1414 O   0  0  0  0  0  0  0  0  0  0  0  0
  -13.5514   -2.3205   17.5667 C   0  0  0  0  0  0  0  0  0  0  0  0
  -12.2471   -2.2049   22.5422 H   0  0  0  0  0  0  0  0  0  0  0  0
  -10.6010   -2.1376   22.3214 H   0  0  0  0  0  0  0  0  0  0  0  0
  -11.7008   -1.4827   21.0406 H   0  0  0  0  0  0  0  0  0  0  0  0
  -12.7825   -3.7532   21.1068 H   0  0  0  0  0  0  0  0  0  0  0  0
  -11.2973   -4.0202   22.0906 H   0  0  0  0  0  0  0  0  0  0  0  0
  -10.0522   -6.1385   18.8289 H   0  0  0  0  0  0  0  0  0  0  0  0
  -10.4922   -6.8665   19.8785 H   0  0  0  0  0  0  0  0  0  0  0  0
   -8.0372   -7.2086   21.5767 H   0  0  0  0  0  0  0  0  0  0  0  0
   -5.7827   -8.1636   21.1307 H   0  0  0  0  0  0  0  0  0  0  0  0
   -6.5202   -7.9870   17.1480 H   0  0  0  0  0  0  0  0  0  0  0  0
   -8.7158   -7.0479   17.4817 H   0  0  0  0  0  0  0  0  0  0  0  0
  -12.0423   -5.3783   16.9427 H   0  0  0  0  0  0  0  0  0  0  0  0
  -10.1982   -4.8540   15.6005 H   0  0  0  0  0  0  0  0  0  0  0  0
  -10.6786   -1.6198   12.8605 H   0  0  0  0  0  0  0  0  0  0  0  0
  -12.7366   -0.8337   14.0201 H   0  0  0  0  0  0  0  0  0  0  0  0
  -13.0301   -1.4453   17.9452 H   0  0  0  0  0  0  0  0  0  0  0  0
  -14.5502   -2.3245   18.0174 H   0  0  0  0  0  0  0  0  0  0  0  0
  1  2  1  0
  2  3  1  0
  3  4  1  0
  4  5  1  0
  5  6  2  0
  6  7  1  0
  7  8  2  0
  8  9  1  0
  9 10  2  0
  3 11  1  0
 11 12  2  0
 11 13  1  0
 13 14  2  0
 14 15  1  0
 15 16  2  0
 16 17  1  0
 17 18  1  0
 17 19  2  0
 19 20  1  0
 20 21  2  0
 21 22  1  0
 22 23  1  0
 10  5  1  0
 23 13  1  0
 21 15  1  0
  1 24  1  0
  1 25  1  0
  1 26  1  0
  2 27  1  0
  2 28  1  0
  4 29  1  0
  4 30  1  0
  6 31  1  0
  7 32  1  0
  9 33  1  0
 10 34  1  0
 14 35  1  0
 16 36  1  0
 19 37  1  0
 20 38  1  0
 23 39  1  0
 23 40  1  0
M  END
>  <Energy>  (683) 
321.98998322977684

>  <compound_id>  (683) 
17178

>  <target_id>  (683) 
1

>  <reference_id>  (683) 
7

>  <inspiration_ids>  (683) 
[91, 7]

>  <energy_score>  (683) 
266.2424473740441

>  <distance_score>  (683) 
14.799049417700283

>  <path>  (683) 
/opt/xchem-fragalysis-2/maxwin/BulkDock/SCRATCH/511023/C17178-P7/C17178-P7.minimised.mol

>  <scratch_subdir>  (683) 
/opt/xchem-fragalysis-2/maxwin/BulkDock/SCRATCH/511023/C17178-P7

>  <fragmenstein_runtime>  (683) 
10.187597036361694

>  <fragmenstein_outcome>  (683) 
too moved

>  <fragmenstein_mode>  (683) 
expansion

>  <fragmenstein_error>  (683) 


$$$$
C46599-P7
     RDKit          3D

 34 35  0  0  0  0  0  0  0  0999 V2000
  -17.7576   -4.3472   24.5752 C   0  0  0  0  0  0  0  0  0  0  0  0
  -17.1610   -4.5321   23.1366 C   0  0  0  0  0  0  0  0  0  0  0  0
  -15.4468   -4.6889   22.9303 C   0  0  0  0  0  0  0  0  0  0  0  0
  -15.3250   -5.6900   24.3067 C   0  0  0  0  0  0  0  0  0  0  0  0
  -13.8329   -4.4891   21.8801 O   0  0  0  0  0  0  0  0  0  0  0  0
  -13.5038   -3.4402   20.4456 N   0  0  0  0  0  0  0  0  0  0  0  0
  -12.2961   -3.4301   19.7797 C   0  0  0  0  0  0  0  0  0  0  0  0
  -11.5894   -2.7073   18.2311 C   0  0  0  0  0  0  0  0  0  0  0  0
  -10.8586   -2.8002   17.0337 C   0  0  0  0  0  0  0  0  0  0  0  0
  -10.4867   -2.1595   15.7943 C   0  0  0  0  0  0  0  0  0  0  0  0
   -9.7995   -2.9523   14.8968 C   0  0  0  0  0  0  0  0  0  0  0  0
  -10.0474   -2.7423   13.5839 C   0  0  0  0  0  0  0  0  0  0  0  0
  -10.8929   -1.6896   13.0747 C   0  0  0  0  0  0  0  0  0  0  0  0
  -11.5852   -0.8901   13.9901 C   0  0  0  0  0  0  0  0  0  0  0  0
  -11.4018   -1.2316   15.3380 C   0  0  0  0  0  0  0  0  0  0  0  0
  -12.3769   -1.0517   16.2560 O   0  0  0  0  0  0  0  0  0  0  0  0
  -11.9735   -1.4461   17.7581 C   0  0  0  0  0  0  0  0  0  0  0  0
  -18.7956   -4.0089   24.4747 H   0  0  0  0  0  0  0  0  0  0  0  0
  -17.2417   -3.6163   25.2008 H   0  0  0  0  0  0  0  0  0  0  0  0
  -17.8046   -5.3010   25.1105 H   0  0  0  0  0  0  0  0  0  0  0  0
  -17.5972   -3.7807   22.4907 H   0  0  0  0  0  0  0  0  0  0  0  0
  -17.6246   -5.4649   22.7753 H   0  0  0  0  0  0  0  0  0  0  0  0
  -15.9052   -4.7096   21.9260 H   0  0  0  0  0  0  0  0  0  0  0  0
  -14.3270   -6.0912   24.5364 H   0  0  0  0  0  0  0  0  0  0  0  0
  -15.5972   -5.1414   25.2127 H   0  0  0  0  0  0  0  0  0  0  0  0
  -16.0221   -6.5375   24.2418 H   0  0  0  0  0  0  0  0  0  0  0  0
  -11.4951   -3.9890   20.2709 H   0  0  0  0  0  0  0  0  0  0  0  0
  -10.5513   -3.8257   16.6839 H   0  0  0  0  0  0  0  0  0  0  0  0
   -9.4491   -3.9506   15.1184 H   0  0  0  0  0  0  0  0  0  0  0  0
   -9.6911   -3.6295   13.0581 H   0  0  0  0  0  0  0  0  0  0  0  0
  -11.0611   -1.5788   12.0064 H   0  0  0  0  0  0  0  0  0  0  0  0
  -12.3377   -0.1784   13.6794 H   0  0  0  0  0  0  0  0  0  0  0  0
  -10.9999   -0.9794   17.8521 H   0  0  0  0  0  0  0  0  0  0  0  0
  -12.7919   -1.2136   18.3735 H   0  0  0  0  0  0  0  0  0  0  0  0
  1  2  1  0
  2  3  1  0
  3  4  1  0
  3  5  1  0
  5  6  1  0
  6  7  2  3
  7  8  1  0
  8  9  2  0
  9 10  1  0
 10 11  2  0
 11 12  1  0
 12 13  2  0
 13 14  1  0
 14 15  2  0
 15 16  1  0
 16 17  1  0
 17  8  1  0
 15 10  1  0
  1 18  1  0
  1 19  1  0
  1 20  1  0
  2 21  1  0
  2 22  1  0
  3 23  1  0
  4 24  1  0
  4 25  1  0
  4 26  1  0
  7 27  1  0
  9 28  1  0
 11 29  1  0
 12 30  1  0
 13 31  1  0
 14 32  1  0
 17 33  1  0
 17 34  1  0
M  END
>  <Energy>  (684) 
498.06292946483029

>  <compound_id>  (684) 
46599

>  <target_id>  (684) 
1

>  <reference_id>  (684) 
7

>  <inspiration_ids>  (684) 
[91, 7]

>  <energy_score>  (684) 
424.5303379062192

>  <distance_score>  (684) 
12.032094578475057

>  <path>  (684) 
/opt/xchem-fragalysis-2/maxwin/BulkDock/SCRATCH/511023/C46599-P7/C46599-P7.minimised.mol

>  <scratch_subdir>  (684) 
/opt/xchem-fragalysis-2/maxwin/BulkDock/SCRATCH/511023/C46599-P7

>  <fragmenstein_runtime>  (684) 
8.104894399642944

>  <fragmenstein_outcome>  (684) 
too moved

>  <fragmenstein_mode>  (684) 
expansion

>  <fragmenstein_error>  (684) 


$$$$
C46613-P7
     RDKit          3D

 43 45  0  0  0  0  0  0  0  0999 V2000
   -3.9926    8.5265   19.6552 C   0  0  0  0  0  0  0  0  0  0  0  0
   -4.9794    9.2969   18.8019 C   0  0  0  0  0  0  0  0  0  0  0  0
   -4.8718   10.4872   18.6758 O   0  0  0  0  0  0  0  0  0  0  0  0
   -5.9242    8.3869   18.2429 N   0  0  0  0  0  0  0  0  0  0  0  0
   -7.1135    8.2335   19.1729 C   0  0  0  0  0  0  0  0  0  0  0  0
   -7.4983    6.7586   19.4274 C   0  0  0  0  0  0  0  0  0  0  0  0
   -7.0764    5.7920   18.3099 C   0  0  0  0  0  0  0  0  0  0  0  0
   -7.5879    6.0900   16.9435 N   0  0  0  0  0  0  0  0  0  0  0  0
   -6.5656    5.7332   15.9228 C   0  0  0  0  0  0  0  0  0  0  0  0
   -6.8963    5.7348   14.4170 C   0  0  0  0  0  0  0  0  0  0  0  0
   -8.1021    5.6493   13.8254 C   0  0  0  0  0  0  0  0  0  0  0  0
   -8.1660    5.5993   12.3572 C   0  0  0  0  0  0  0  0  0  0  0  0
   -9.3027    5.1576   11.6685 C   0  0  0  0  0  0  0  0  0  0  0  0
   -9.3115    5.1165   10.2655 C   0  0  0  0  0  0  0  0  0  0  0  0
   -8.2015    5.5513    9.5380 C   0  0  0  0  0  0  0  0  0  0  0  0
   -7.0705    6.0067   10.2137 C   0  0  0  0  0  0  0  0  0  0  0  0
   -7.0466    5.9936   11.6129 C   0  0  0  0  0  0  0  0  0  0  0  0
   -5.8720    6.3574   12.2102 O   0  0  0  0  0  0  0  0  0  0  0  0
   -5.6683    5.8147   13.5254 C   0  0  0  0  0  0  0  0  0  0  0  0
   -8.0211    7.4859   16.8063 C   0  0  0  0  0  0  0  0  0  0  0  0
   -7.0215    8.6052   17.2261 C   0  0  0  0  0  0  0  0  0  0  0  0
   -4.1066    8.8345   20.6982 H   0  0  0  0  0  0  0  0  0  0  0  0
   -4.1481    7.4458   19.5885 H   0  0  0  0  0  0  0  0  0  0  0  0
   -2.9779    8.7486   19.3130 H   0  0  0  0  0  0  0  0  0  0  0  0
   -6.7470    8.5702   20.1583 H   0  0  0  0  0  0  0  0  0  0  0  0
   -7.9811    8.9136   19.0840 H   0  0  0  0  0  0  0  0  0  0  0  0
   -8.5767    6.7056   19.6052 H   0  0  0  0  0  0  0  0  0  0  0  0
   -6.9973    6.4309   20.3434 H   0  0  0  0  0  0  0  0  0  0  0  0
   -5.9782    5.7559   18.3072 H   0  0  0  0  0  0  0  0  0  0  0  0
   -7.3962    4.7841   18.5828 H   0  0  0  0  0  0  0  0  0  0  0  0
   -5.6978    6.3893   16.0731 H   0  0  0  0  0  0  0  0  0  0  0  0
   -6.2116    4.7173   16.1402 H   0  0  0  0  0  0  0  0  0  0  0  0
   -9.0184    5.6107   14.3953 H   0  0  0  0  0  0  0  0  0  0  0  0
  -10.1835    4.8275   12.2115 H   0  0  0  0  0  0  0  0  0  0  0  0
  -10.1923    4.7540    9.7413 H   0  0  0  0  0  0  0  0  0  0  0  0
   -8.2153    5.5278    8.4521 H   0  0  0  0  0  0  0  0  0  0  0  0
   -6.1940    6.3296    9.6597 H   0  0  0  0  0  0  0  0  0  0  0  0
   -5.2098    4.8259   13.4297 H   0  0  0  0  0  0  0  0  0  0  0  0
   -4.9218    6.4691   13.9888 H   0  0  0  0  0  0  0  0  0  0  0  0
   -8.3502    7.6918   15.7806 H   0  0  0  0  0  0  0  0  0  0  0  0
   -8.9471    7.6053   17.3850 H   0  0  0  0  0  0  0  0  0  0  0  0
   -7.4972    9.5971   17.3248 H   0  0  0  0  0  0  0  0  0  0  0  0
   -6.4123    8.7671   16.3218 H   0  0  0  0  0  0  0  0  0  0  0  0
  1  2  1  0
  2  3  2  0
  2  4  1  0
  4  5  1  0
  5  6  1  0
  6  7  1  0
  7  8  1  0
  8  9  1  0
  9 10  1  0
 10 11  2  0
 11 12  1  0
 12 13  2  0
 13 14  1  0
 14 15  2  0
 15 16  1  0
 16 17  2  0
 17 18  1  0
 18 19  1  0
  8 20  1  0
 20 21  1  0
 21  4  1  0
 19 10  1  0
 17 12  1  0
  1 22  1  0
  1 23  1  0
  1 24  1  0
  5 25  1  0
  5 26  1  0
  6 27  1  0
  6 28  1  0
  7 29  1  0
  7 30  1  0
  9 31  1  0
  9 32  1  0
 11 33  1  0
 13 34  1  0
 14 35  1  0
 15 36  1  0
 16 37  1  0
 19 38  1  0
 19 39  1  0
 20 40  1  0
 20 41  1  0
 21 42  1  0
 21 43  1  0
M  END
>  <Energy>  (685) 
120.58590643501257

>  <compound_id>  (685) 
46613

>  <target_id>  (685) 
1

>  <reference_id>  (685) 
7

>  <inspiration_ids>  (685) 
[91, 7]

>  <energy_score>  (685) 
28.362933273481133

>  <distance_score>  (685) 
15.451988831280122

>  <path>  (685) 
/opt/xchem-fragalysis-2/maxwin/BulkDock/SCRATCH/511023/C46613-P7/C46613-P7.minimised.mol

>  <scratch_subdir>  (685) 
/opt/xchem-fragalysis-2/maxwin/BulkDock/SCRATCH/511023/C46613-P7

>  <fragmenstein_runtime>  (685) 
27.22021770477295

>  <fragmenstein_outcome>  (685) 
too moved

>  <fragmenstein_mode>  (685) 
expansion

>  <fragmenstein_error>  (685) 


$$$$
C46623-P7
     RDKit          3D

 40 42  0  0  0  0  0  0  0  0999 V2000
  -16.1885   -2.0811   20.3100 C   0  0  0  0  0  0  0  0  0  0  0  0
  -15.7753   -3.2954   21.1170 C   0  0  0  0  0  0  0  0  0  0  0  0
  -16.5370   -3.7823   21.9098 O   0  0  0  0  0  0  0  0  0  0  0  0
  -14.4548   -3.6767   20.7479 N   0  0  0  0  0  0  0  0  0  0  0  0
  -13.6310   -4.8692   21.1440 C   0  0  0  0  0  0  0  0  0  0  0  0
  -12.3000   -5.0534   20.3793 C   0  0  0  0  0  0  0  0  0  0  0  0
  -11.6041   -3.7850   20.1016 N   0  0  0  0  0  0  0  0  0  0  0  0
  -11.9748   -3.2494   18.7597 C   0  0  0  0  0  0  0  0  0  0  0  0
  -10.9051   -3.3601   17.6588 C   0  0  0  0  0  0  0  0  0  0  0  0
   -9.6140   -3.6434   17.8886 C   0  0  0  0  0  0  0  0  0  0  0  0
   -8.7268   -3.9036   16.7619 C   0  0  0  0  0  0  0  0  0  0  0  0
   -7.3999   -4.2959   16.9879 C   0  0  0  0  0  0  0  0  0  0  0  0
   -6.6155   -4.7892   15.9488 C   0  0  0  0  0  0  0  0  0  0  0  0
   -7.1710   -4.9144   14.6872 C   0  0  0  0  0  0  0  0  0  0  0  0
   -8.4671   -4.4475   14.4399 C   0  0  0  0  0  0  0  0  0  0  0  0
   -9.2419   -3.9273   15.4715 C   0  0  0  0  0  0  0  0  0  0  0  0
  -10.5093   -3.5357   15.1568 O   0  0  0  0  0  0  0  0  0  0  0  0
  -11.3797   -3.1366   16.2329 C   0  0  0  0  0  0  0  0  0  0  0  0
  -11.9468   -2.8972   21.2202 C   0  0  0  0  0  0  0  0  0  0  0  0
  -13.4370   -2.9575   21.6260 C   0  0  0  0  0  0  0  0  0  0  0  0
  -17.1868   -2.2510   19.8969 H   0  0  0  0  0  0  0  0  0  0  0  0
  -15.5042   -1.8938   19.4773 H   0  0  0  0  0  0  0  0  0  0  0  0
  -16.2044   -1.2046   20.9635 H   0  0  0  0  0  0  0  0  0  0  0  0
  -13.5672   -5.0734   22.2275 H   0  0  0  0  0  0  0  0  0  0  0  0
  -14.2670   -5.7080   20.8198 H   0  0  0  0  0  0  0  0  0  0  0  0
  -12.4709   -5.6145   19.4510 H   0  0  0  0  0  0  0  0  0  0  0  0
  -11.6637   -5.7091   20.9820 H   0  0  0  0  0  0  0  0  0  0  0  0
  -12.2374   -2.1938   18.8228 H   0  0  0  0  0  0  0  0  0  0  0  0
  -12.8881   -3.7388   18.3957 H   0  0  0  0  0  0  0  0  0  0  0  0
   -9.2370   -3.7860   18.8969 H   0  0  0  0  0  0  0  0  0  0  0  0
   -6.9942   -4.2923   17.9975 H   0  0  0  0  0  0  0  0  0  0  0  0
   -5.6047   -5.1358   16.1441 H   0  0  0  0  0  0  0  0  0  0  0  0
   -6.5936   -5.3961   13.9047 H   0  0  0  0  0  0  0  0  0  0  0  0
   -8.9011   -4.5353   13.4494 H   0  0  0  0  0  0  0  0  0  0  0  0
  -12.3121   -3.6916   16.0789 H   0  0  0  0  0  0  0  0  0  0  0  0
  -11.6075   -2.0746   16.0908 H   0  0  0  0  0  0  0  0  0  0  0  0
  -11.3568   -3.1933   22.0969 H   0  0  0  0  0  0  0  0  0  0  0  0
  -11.6432   -1.8679   21.0292 H   0  0  0  0  0  0  0  0  0  0  0  0
  -13.7736   -1.9135   21.5776 H   0  0  0  0  0  0  0  0  0  0  0  0
  -13.5689   -3.1885   22.6965 H   0  0  0  0  0  0  0  0  0  0  0  0
  1  2  1  0
  2  3  2  0
  2  4  1  0
  4  5  1  0
  5  6  1  0
  6  7  1  0
  7  8  1  0
  8  9  1  0
  9 10  2  0
 10 11  1  0
 11 12  2  0
 12 13  1  0
 13 14  2  0
 14 15  1  0
 15 16  2  0
 16 17  1  0
 17 18  1  0
  7 19  1  0
 19 20  1  0
 20  4  1  0
 18  9  1  0
 16 11  1  0
  1 21  1  0
  1 22  1  0
  1 23  1  0
  5 24  1  0
  5 25  1  0
  6 26  1  0
  6 27  1  0
  8 28  1  0
  8 29  1  0
 10 30  1  0
 12 31  1  0
 13 32  1  0
 14 33  1  0
 15 34  1  0
 18 35  1  0
 18 36  1  0
 19 37  1  0
 19 38  1  0
 20 39  1  0
 20 40  1  0
M  END
>  <Energy>  (686) 
145.38761173983357

>  <compound_id>  (686) 
46623

>  <target_id>  (686) 
1

>  <reference_id>  (686) 
7

>  <inspiration_ids>  (686) 
[91, 7]

>  <energy_score>  (686) 
40.05779279869239

>  <distance_score>  (686) 
13.283563406520027

>  <path>  (686) 
/opt/xchem-fragalysis-2/maxwin/BulkDock/SCRATCH/511023/C46623-P7/C46623-P7.minimised.mol

>  <scratch_subdir>  (686) 
/opt/xchem-fragalysis-2/maxwin/BulkDock/SCRATCH/511023/C46623-P7

>  <fragmenstein_runtime>  (686) 
25.969985961914062

>  <fragmenstein_outcome>  (686) 
too moved

>  <fragmenstein_mode>  (686) 
expansion

>  <fragmenstein_error>  (686) 


$$$$
C46624-P7
     RDKit          3D

 44 46  0  0  0  0  0  0  0  0999 V2000
   -6.3179   -1.0630   31.5599 C   0  0  0  0  0  0  0  0  0  0  0  0
   -6.3967   -1.4868   29.7786 S   0  0  0  0  0  0  0  0  0  0  0  0
   -7.2785   -0.0147   29.1569 C   0  0  0  0  0  0  0  0  0  0  0  0
   -7.2957    0.1651   27.6442 C   0  0  0  0  0  0  0  0  0  0  0  0
   -6.8175    1.2028   27.2543 O   0  0  0  0  0  0  0  0  0  0  0  0
   -7.8825   -0.9305   26.9119 N   0  0  0  0  0  0  0  0  0  0  0  0
   -7.9773   -1.1829   25.3921 C   0  0  0  0  0  0  0  0  0  0  0  0
   -8.9488   -1.7947   24.0428 C   0  0  0  0  0  0  0  0  0  0  0  0
  -10.3564   -1.6642   23.7482 N   0  0  0  0  0  0  0  0  0  0  0  0
  -11.1193   -2.8515   22.9706 C   0  0  0  0  0  0  0  0  0  0  0  0
  -11.2979   -3.2711   21.2785 C   0  0  0  0  0  0  0  0  0  0  0  0
  -11.3712   -4.4537   20.5827 C   0  0  0  0  0  0  0  0  0  0  0  0
  -11.0123   -4.4621   19.1178 C   0  0  0  0  0  0  0  0  0  0  0  0
  -10.3646   -5.5159   18.4548 C   0  0  0  0  0  0  0  0  0  0  0  0
   -9.9302   -5.3877   17.1155 C   0  0  0  0  0  0  0  0  0  0  0  0
  -10.1466   -4.2043   16.4116 C   0  0  0  0  0  0  0  0  0  0  0  0
  -10.8094   -3.1615   17.0522 C   0  0  0  0  0  0  0  0  0  0  0  0
  -11.2242   -3.3077   18.3888 C   0  0  0  0  0  0  0  0  0  0  0  0
  -11.8617   -2.2724   18.9787 O   0  0  0  0  0  0  0  0  0  0  0  0
  -12.0108   -2.3034   20.4283 C   0  0  0  0  0  0  0  0  0  0  0  0
  -10.8402   -1.0343   25.0555 C   0  0  0  0  0  0  0  0  0  0  0  0
   -9.5953   -0.6784   26.7482 C   0  0  0  0  0  0  0  0  0  0  0  0
   -7.2499   -0.6473   31.9422 H   0  0  0  0  0  0  0  0  0  0  0  0
   -6.0610   -1.9585   32.1296 H   0  0  0  0  0  0  0  0  0  0  0  0
   -5.5241   -0.3255   31.7084 H   0  0  0  0  0  0  0  0  0  0  0  0
   -6.7493    0.8495   29.5758 H   0  0  0  0  0  0  0  0  0  0  0  0
   -8.3120    0.0796   29.4819 H   0  0  0  0  0  0  0  0  0  0  0  0
   -7.5174   -0.2612   25.0357 H   0  0  0  0  0  0  0  0  0  0  0  0
   -7.1445   -1.9021   25.3168 H   0  0  0  0  0  0  0  0  0  0  0  0
   -8.4427   -2.6465   23.5993 H   0  0  0  0  0  0  0  0  0  0  0  0
   -8.8784   -0.8876   23.4651 H   0  0  0  0  0  0  0  0  0  0  0  0
  -10.9156   -3.7816   23.5091 H   0  0  0  0  0  0  0  0  0  0  0  0
  -12.1455   -2.6037   23.1558 H   0  0  0  0  0  0  0  0  0  0  0  0
  -11.4349   -5.4258   21.0616 H   0  0  0  0  0  0  0  0  0  0  0  0
  -10.1537   -6.4378   18.9915 H   0  0  0  0  0  0  0  0  0  0  0  0
   -9.4135   -6.2165   16.6386 H   0  0  0  0  0  0  0  0  0  0  0  0
   -9.8111   -4.0968   15.3848 H   0  0  0  0  0  0  0  0  0  0  0  0
  -10.9987   -2.2277   16.5316 H   0  0  0  0  0  0  0  0  0  0  0  0
  -13.0610   -2.5585   20.5157 H   0  0  0  0  0  0  0  0  0  0  0  0
  -11.8454   -1.3453   20.9079 H   0  0  0  0  0  0  0  0  0  0  0  0
  -11.6749   -1.7458   25.0875 H   0  0  0  0  0  0  0  0  0  0  0  0
  -11.5086   -0.1675   25.0718 H   0  0  0  0  0  0  0  0  0  0  0  0
   -9.7256   -1.2721   27.6742 H   0  0  0  0  0  0  0  0  0  0  0  0
   -9.9951    0.0795   27.4037 H   0  0  0  0  0  0  0  0  0  0  0  0
  1  2  1  0
  2  3  1  0
  3  4  1  0
  4  5  2  0
  4  6  1  0
  6  7  1  0
  7  8  1  0
  8  9  1  0
  9 10  1  0
 10 11  1  0
 11 12  2  0
 12 13  1  0
 13 14  2  0
 14 15  1  0
 15 16  2  0
 16 17  1  0
 17 18  2  0
 18 19  1  0
 19 20  1  0
  9 21  1  0
 21 22  1  0
 22  6  1  0
 20 11  1  0
 18 13  1  0
  1 23  1  0
  1 24  1  0
  1 25  1  0
  3 26  1  0
  3 27  1  0
  7 28  1  0
  7 29  1  0
  8 30  1  0
  8 31  1  0
 10 32  1  0
 10 33  1  0
 12 34  1  0
 14 35  1  0
 15 36  1  0
 16 37  1  0
 17 38  1  0
 20 39  1  0
 20 40  1  0
 21 41  1  0
 21 42  1  0
 22 43  1  0
 22 44  1  0
M  END
>  <Energy>  (687) 
460.98982445810259

>  <compound_id>  (687) 
46624

>  <target_id>  (687) 
1

>  <reference_id>  (687) 
7

>  <inspiration_ids>  (687) 
[91, 7]

>  <energy_score>  (687) 
328.4778077875852

>  <distance_score>  (687) 
12.195950713973987

>  <path>  (687) 
/opt/xchem-fragalysis-2/maxwin/BulkDock/SCRATCH/511023/C46624-P7/C46624-P7.minimised.mol

>  <scratch_subdir>  (687) 
/opt/xchem-fragalysis-2/maxwin/BulkDock/SCRATCH/511023/C46624-P7

>  <fragmenstein_runtime>  (687) 
11.48249626159668

>  <fragmenstein_outcome>  (687) 
too moved

>  <fragmenstein_mode>  (687) 
expansion

>  <fragmenstein_error>  (687) 


$$$$
C46631-P7
     RDKit          3D

 39 41  0  0  0  0  0  0  0  0999 V2000
  -11.0070   -3.5773   31.0087 C   0  0  0  0  0  0  0  0  0  0  0  0
   -9.4813   -3.4407   29.7004 C   0  0  0  0  0  0  0  0  0  0  0  0
   -7.8430   -2.9506   29.5933 C   0  0  0  0  0  0  0  0  0  0  0  0
   -7.1131   -1.6113   29.0567 C   0  0  0  0  0  0  0  0  0  0  0  0
   -7.0673   -0.5177   30.0338 O   0  0  0  0  0  0  0  0  0  0  0  0
   -6.3808   -0.7974   31.2546 C   0  0  0  0  0  0  0  0  0  0  0  0
   -7.3321   -1.0911   27.6235 C   0  0  0  0  0  0  0  0  0  0  0  0
   -6.9780    0.1378   27.2137 N   0  0  0  0  0  0  0  0  0  0  0  0
   -7.3138    0.1600   25.8443 O   0  0  0  0  0  0  0  0  0  0  0  0
   -7.8975   -1.0631   25.5217 C   0  0  0  0  0  0  0  0  0  0  0  0
   -8.8584   -1.4539   24.2242 C   0  0  0  0  0  0  0  0  0  0  0  0
  -10.3043   -1.3823   23.9282 C   0  0  0  0  0  0  0  0  0  0  0  0
  -11.0878   -2.0755   22.8199 C   0  0  0  0  0  0  0  0  0  0  0  0
  -12.1940   -2.4800   22.1372 C   0  0  0  0  0  0  0  0  0  0  0  0
  -12.4753   -2.9009   20.7099 C   0  0  0  0  0  0  0  0  0  0  0  0
  -13.6544   -3.2540   20.2103 F   0  0  0  0  0  0  0  0  0  0  0  0
  -11.5687   -2.8275   19.7703 C   0  0  0  0  0  0  0  0  0  0  0  0
  -10.4474   -2.6295   20.4294 C   0  0  0  0  0  0  0  0  0  0  0  0
  -10.2873   -2.5554   21.9978 C   0  0  0  0  0  0  0  0  0  0  0  0
   -8.9602   -2.6088   22.5406 O   0  0  0  0  0  0  0  0  0  0  0  0
   -8.5657   -2.7596   23.8472 C   0  0  0  0  0  0  0  0  0  0  0  0
   -7.7071   -1.8731   26.5715 N   0  0  0  0  0  0  0  0  0  0  0  0
  -11.7275   -4.4143   30.9759 H   0  0  0  0  0  0  0  0  0  0  0  0
  -11.7818   -2.7627   30.8787 H   0  0  0  0  0  0  0  0  0  0  0  0
  -10.7722   -3.2906   32.0340 H   0  0  0  0  0  0  0  0  0  0  0  0
   -9.8195   -2.6595   28.9958 H   0  0  0  0  0  0  0  0  0  0  0  0
   -9.3850   -4.4109   29.2106 H   0  0  0  0  0  0  0  0  0  0  0  0
   -7.3766   -3.7525   29.0066 H   0  0  0  0  0  0  0  0  0  0  0  0
   -7.4402   -2.9725   30.5836 H   0  0  0  0  0  0  0  0  0  0  0  0
   -6.0591   -1.9301   28.9932 H   0  0  0  0  0  0  0  0  0  0  0  0
   -5.4074   -1.2548   31.0554 H   0  0  0  0  0  0  0  0  0  0  0  0
   -6.9643   -1.4279   31.9268 H   0  0  0  0  0  0  0  0  0  0  0  0
   -6.2128    0.1559   31.7639 H   0  0  0  0  0  0  0  0  0  0  0  0
  -10.9990   -0.8822   24.5744 H   0  0  0  0  0  0  0  0  0  0  0  0
  -12.9924   -2.4515   22.7894 H   0  0  0  0  0  0  0  0  0  0  0  0
  -11.7169   -2.9640   18.7238 H   0  0  0  0  0  0  0  0  0  0  0  0
   -9.5394   -2.5275   19.8483 H   0  0  0  0  0  0  0  0  0  0  0  0
   -7.5004   -2.9895   23.9315 H   0  0  0  0  0  0  0  0  0  0  0  0
   -9.0640   -3.5656   24.3746 H   0  0  0  0  0  0  0  0  0  0  0  0
  1  2  1  0
  2  3  1  0
  3  4  1  0
  4  5  1  0
  5  6  1  0
  4  7  1  0
  7  8  2  0
  8  9  1  0
  9 10  1  0
 10 11  1  0
 11 12  2  0
 12 13  1  0
 13 14  2  0
 14 15  1  0
 15 16  1  0
 15 17  2  0
 17 18  1  0
 18 19  2  0
 19 20  1  0
 20 21  1  0
 10 22  2  0
 22  7  1  0
 21 11  1  0
 19 13  1  0
  1 23  1  0
  1 24  1  0
  1 25  1  0
  2 26  1  0
  2 27  1  0
  3 28  1  0
  3 29  1  0
  4 30  1  0
  6 31  1  0
  6 32  1  0
  6 33  1  0
 12 34  1  0
 14 35  1  0
 17 36  1  0
 18 37  1  0
 21 38  1  0
 21 39  1  0
M  END
>  <Energy>  (688) 
391.85426651791664

>  <compound_id>  (688) 
46631

>  <target_id>  (688) 
1

>  <reference_id>  (688) 
7

>  <inspiration_ids>  (688) 
[91, 7]

>  <energy_score>  (688) 
292.9807605254816

>  <distance_score>  (688) 
13.124968202278254

>  <path>  (688) 
/opt/xchem-fragalysis-2/maxwin/BulkDock/SCRATCH/511023/C46631-P7/C46631-P7.minimised.mol

>  <scratch_subdir>  (688) 
/opt/xchem-fragalysis-2/maxwin/BulkDock/SCRATCH/511023/C46631-P7

>  <fragmenstein_runtime>  (688) 
8.618210554122925

>  <fragmenstein_outcome>  (688) 
too moved

>  <fragmenstein_mode>  (688) 
expansion

>  <fragmenstein_error>  (688) 


$$$$
C46636-P7
     RDKit          3D

 38 40  0  0  0  0  0  0  0  0999 V2000
  -10.9085   -2.8357   25.7576 C   0  0  0  0  0  0  0  0  0  0  0  0
  -11.6391   -2.6670   24.5512 O   0  0  0  0  0  0  0  0  0  0  0  0
  -11.0349   -3.4117   23.4701 C   0  0  0  0  0  0  0  0  0  0  0  0
  -11.6657   -3.3434   22.0257 C   0  0  0  0  0  0  0  0  0  0  0  0
  -12.2222   -4.2687   21.2504 N   0  0  0  0  0  0  0  0  0  0  0  0
  -12.3854   -3.8370   19.8597 N   0  0  0  0  0  0  0  0  0  0  0  0
  -11.4997   -2.9133   19.4993 C   0  0  0  0  0  0  0  0  0  0  0  0
  -10.9375   -2.3678   17.8536 C   0  0  0  0  0  0  0  0  0  0  0  0
  -10.3030   -3.2994   16.2809 N   0  0  0  0  0  0  0  0  0  0  0  0
   -9.2489   -4.8649   15.3544 S   0  0  0  0  0  0  0  0  0  0  0  0
   -7.8466   -4.5546   15.2437 O   0  0  0  0  0  0  0  0  0  0  0  0
   -9.7254   -6.1243   15.8866 O   0  0  0  0  0  0  0  0  0  0  0  0
   -9.8991   -4.9104   13.3415 C   0  0  0  0  0  0  0  0  0  0  0  0
   -9.3490   -4.8437   12.0951 C   0  0  0  0  0  0  0  0  0  0  0  0
   -9.8158   -3.9621   10.7199 C   0  0  0  0  0  0  0  0  0  0  0  0
   -9.1299   -3.9356    9.2092 C   0  0  0  0  0  0  0  0  0  0  0  0
   -9.0682   -2.7273    8.3982 C   0  0  0  0  0  0  0  0  0  0  0  0
   -9.6179   -1.4763    8.8491 C   0  0  0  0  0  0  0  0  0  0  0  0
  -10.2350   -1.3054   10.1331 C   0  0  0  0  0  0  0  0  0  0  0  0
  -10.3121   -2.4304   11.0324 C   0  0  0  0  0  0  0  0  0  0  0  0
  -10.5297   -2.2379   12.3715 O   0  0  0  0  0  0  0  0  0  0  0  0
   -9.9258   -3.5351   13.3114 C   0  0  0  0  0  0  0  0  0  0  0  0
  -11.4344   -2.0271   21.0338 S   0  0  0  0  0  0  0  0  0  0  0  0
   -9.8736   -2.5020   25.6367 H   0  0  0  0  0  0  0  0  0  0  0  0
  -11.3822   -2.2279   26.5332 H   0  0  0  0  0  0  0  0  0  0  0  0
  -10.9311   -3.8830   26.0734 H   0  0  0  0  0  0  0  0  0  0  0  0
  -10.9780   -4.4672   23.7604 H   0  0  0  0  0  0  0  0  0  0  0  0
  -10.0361   -2.9779   23.3925 H   0  0  0  0  0  0  0  0  0  0  0  0
  -11.7307   -1.7438   17.4608 H   0  0  0  0  0  0  0  0  0  0  0  0
  -10.0718   -1.7136   18.0291 H   0  0  0  0  0  0  0  0  0  0  0  0
  -10.9382   -2.8791   15.6155 H   0  0  0  0  0  0  0  0  0  0  0  0
   -8.2657   -4.9474   12.1385 H   0  0  0  0  0  0  0  0  0  0  0  0
   -8.4276   -4.6793    8.8843 H   0  0  0  0  0  0  0  0  0  0  0  0
   -8.5470   -2.7642    7.4442 H   0  0  0  0  0  0  0  0  0  0  0  0
   -9.5310   -0.6085    8.1981 H   0  0  0  0  0  0  0  0  0  0  0  0
  -10.5708   -0.3270   10.4541 H   0  0  0  0  0  0  0  0  0  0  0  0
  -10.5408   -3.2886   14.1111 H   0  0  0  0  0  0  0  0  0  0  0  0
   -8.7683   -3.5233   13.4636 H   0  0  0  0  0  0  0  0  0  0  0  0
  1  2  1  0
  2  3  1  0
  3  4  1  0
  4  5  2  0
  5  6  1  0
  6  7  2  0
  7  8  1  0
  8  9  1  0
  9 10  1  0
 10 11  2  0
 10 12  2  0
 10 13  1  0
 13 14  2  0
 14 15  1  0
 15 16  2  0
 16 17  1  0
 17 18  2  0
 18 19  1  0
 19 20  2  0
 20 21  1  0
 21 22  1  0
  7 23  1  0
 23  4  1  0
 22 13  1  0
 20 15  1  0
  1 24  1  0
  1 25  1  0
  1 26  1  0
  3 27  1  0
  3 28  1  0
  8 29  1  0
  8 30  1  0
  9 31  1  0
 14 32  1  0
 16 33  1  0
 17 34  1  0
 18 35  1  0
 19 36  1  0
 22 37  1  0
 22 38  1  0
M  END
>  <Energy>  (689) 
441.92938354116075

>  <compound_id>  (689) 
46636

>  <target_id>  (689) 
1

>  <reference_id>  (689) 
7

>  <inspiration_ids>  (689) 
[91, 7]

>  <energy_score>  (689) 
403.8902909141956

>  <distance_score>  (689) 
10.31051341067637

>  <path>  (689) 
/opt/xchem-fragalysis-2/maxwin/BulkDock/SCRATCH/511023/C46636-P7/C46636-P7.minimised.mol

>  <scratch_subdir>  (689) 
/opt/xchem-fragalysis-2/maxwin/BulkDock/SCRATCH/511023/C46636-P7

>  <fragmenstein_runtime>  (689) 
11.11537218093872

>  <fragmenstein_outcome>  (689) 
too moved

>  <fragmenstein_mode>  (689) 
expansion

>  <fragmenstein_error>  (689) 


$$$$
C46637-P7
     RDKit          3D

 39 41  0  0  0  0  0  0  0  0999 V2000
   -8.3040   -1.2222   27.9215 O   0  0  0  0  0  0  0  0  0  0  0  0
   -7.5172   -2.3624   27.4628 S   0  0  0  0  0  0  0  0  0  0  0  0
   -7.9661   -3.7142   27.7923 O   0  0  0  0  0  0  0  0  0  0  0  0
   -6.0643   -2.3803   28.5777 N   0  0  0  0  0  0  0  0  0  0  0  0
   -6.3503   -2.3362   30.0581 C   0  0  0  0  0  0  0  0  0  0  0  0
   -6.1008   -1.0738   30.9349 C   0  0  0  0  0  0  0  0  0  0  0  0
   -6.3462   -1.3851   32.4332 C   0  0  0  0  0  0  0  0  0  0  0  0
   -5.9342   -0.3490   33.2171 F   0  0  0  0  0  0  0  0  0  0  0  0
   -6.7402    0.2968   30.5811 C   0  0  0  0  0  0  0  0  0  0  0  0
   -5.3739    0.9646   30.7897 C   0  0  0  0  0  0  0  0  0  0  0  0
   -4.7078   -0.4193   30.7479 C   0  0  0  0  0  0  0  0  0  0  0  0
   -6.8089   -1.8537   25.3416 C   0  0  0  0  0  0  0  0  0  0  0  0
   -7.3949   -2.6396   24.2622 C   0  0  0  0  0  0  0  0  0  0  0  0
   -6.3102   -3.4352   23.0857 C   0  0  0  0  0  0  0  0  0  0  0  0
   -6.4833   -3.3781   21.6361 C   0  0  0  0  0  0  0  0  0  0  0  0
   -5.6225   -3.9252   20.6632 C   0  0  0  0  0  0  0  0  0  0  0  0
   -4.4601   -4.5255   21.0829 C   0  0  0  0  0  0  0  0  0  0  0  0
   -4.1622   -4.4899   22.4458 C   0  0  0  0  0  0  0  0  0  0  0  0
   -5.0383   -3.9003   23.4070 C   0  0  0  0  0  0  0  0  0  0  0  0
   -4.3976   -3.5416   24.5700 O   0  0  0  0  0  0  0  0  0  0  0  0
   -4.9288   -2.4757   25.4738 C   0  0  0  0  0  0  0  0  0  0  0  0
   -5.5729   -3.2523   28.3783 H   0  0  0  0  0  0  0  0  0  0  0  0
   -5.6595   -3.0945   30.4477 H   0  0  0  0  0  0  0  0  0  0  0  0
   -7.3516   -2.7257   30.2034 H   0  0  0  0  0  0  0  0  0  0  0  0
   -7.3967   -1.5481   32.6540 H   0  0  0  0  0  0  0  0  0  0  0  0
   -5.7669   -2.2596   32.7418 H   0  0  0  0  0  0  0  0  0  0  0  0
   -7.1328    0.4009   29.5683 H   0  0  0  0  0  0  0  0  0  0  0  0
   -7.5023    0.6612   31.2701 H   0  0  0  0  0  0  0  0  0  0  0  0
   -5.2631    1.4753   31.7517 H   0  0  0  0  0  0  0  0  0  0  0  0
   -5.0674    1.6514   29.9955 H   0  0  0  0  0  0  0  0  0  0  0  0
   -3.9770   -0.6031   31.5428 H   0  0  0  0  0  0  0  0  0  0  0  0
   -4.2096   -0.6347   29.7971 H   0  0  0  0  0  0  0  0  0  0  0  0
   -8.4574   -2.8007   24.1308 H   0  0  0  0  0  0  0  0  0  0  0  0
   -7.3454   -2.8493   21.2266 H   0  0  0  0  0  0  0  0  0  0  0  0
   -5.8743   -3.8561   19.6092 H   0  0  0  0  0  0  0  0  0  0  0  0
   -3.7599   -4.9542   20.3733 H   0  0  0  0  0  0  0  0  0  0  0  0
   -3.1865   -4.8406   22.7795 H   0  0  0  0  0  0  0  0  0  0  0  0
   -4.7840   -2.8781   26.4887 H   0  0  0  0  0  0  0  0  0  0  0  0
   -4.0792   -1.7681   25.4601 H   0  0  0  0  0  0  0  0  0  0  0  0
  1  2  2  0
  2  3  2  0
  2  4  1  0
  4  5  1  0
  5  6  1  0
  6  7  1  0
  7  8  1  0
  6  9  1  0
  9 10  1  0
 10 11  1  0
  2 12  1  0
 12 13  2  0
 13 14  1  0
 14 15  2  0
 15 16  1  0
 16 17  2  0
 17 18  1  0
 18 19  2  0
 19 20  1  0
 20 21  1  0
 11  6  1  0
 21 12  1  0
 19 14  1  0
  4 22  1  0
  5 23  1  0
  5 24  1  0
  7 25  1  0
  7 26  1  0
  9 27  1  0
  9 28  1  0
 10 29  1  0
 10 30  1  0
 11 31  1  0
 11 32  1  0
 13 33  1  0
 15 34  1  0
 16 35  1  0
 17 36  1  0
 18 37  1  0
 21 38  1  0
 21 39  1  0
M  END
>  <Energy>  (690) 
149.69253323585593

>  <compound_id>  (690) 
46637

>  <target_id>  (690) 
1

>  <reference_id>  (690) 
7

>  <inspiration_ids>  (690) 
[91, 7]

>  <energy_score>  (690) 
173.40617660824347

>  <distance_score>  (690) 
13.754259726494036

>  <path>  (690) 
/opt/xchem-fragalysis-2/maxwin/BulkDock/SCRATCH/511023/C46637-P7/C46637-P7.minimised.mol

>  <scratch_subdir>  (690) 
/opt/xchem-fragalysis-2/maxwin/BulkDock/SCRATCH/511023/C46637-P7

>  <fragmenstein_runtime>  (690) 
14.839964389801025

>  <fragmenstein_outcome>  (690) 
too moved

>  <fragmenstein_mode>  (690) 
expansion

>  <fragmenstein_error>  (690) 


$$$$
C9289-P7
     RDKit          3D

 41 44  0  0  0  0  0  0  0  0999 V2000
   -9.9945   -1.5836   17.1187 C   0  0  0  0  0  0  0  0  0  0  0  0
   -9.4441   -1.2814   18.3272 C   0  0  0  0  0  0  0  0  0  0  0  0
  -10.0828   -2.0753   19.9230 C   0  0  0  0  0  0  0  0  0  0  0  0
  -11.1716   -1.3469   21.3364 N   0  0  0  0  0  0  0  0  0  0  0  0
  -12.1948   -2.2903   20.9190 C   0  0  0  0  0  0  0  0  0  0  0  0
  -12.4290   -3.0222   22.0756 C   0  0  0  0  0  0  0  0  0  0  0  0
  -11.1868   -3.3765   22.4614 O   0  0  0  0  0  0  0  0  0  0  0  0
  -10.7387   -2.6096   23.5615 C   0  0  0  0  0  0  0  0  0  0  0  0
  -10.8153   -1.1714   23.2640 C   0  0  0  0  0  0  0  0  0  0  0  0
  -11.4509   -0.3988   25.0422 C   0  0  0  0  0  0  0  0  0  0  0  0
  -12.7278   -0.1559   25.9488 C   0  0  0  0  0  0  0  0  0  0  0  0
  -12.5743    0.0339   27.3543 C   0  0  0  0  0  0  0  0  0  0  0  0
  -11.3641    0.4063   27.5986 N   0  0  0  0  0  0  0  0  0  0  0  0
  -10.7418   -0.1229   26.5250 N   0  0  0  0  0  0  0  0  0  0  0  0
   -8.4505    0.0930   17.9251 C   0  0  0  0  0  0  0  0  0  0  0  0
   -7.2133   -0.0064   17.3537 O   0  0  0  0  0  0  0  0  0  0  0  0
   -7.4003   -0.8238   16.2966 C   0  0  0  0  0  0  0  0  0  0  0  0
   -6.1945   -0.8824   15.5313 C   0  0  0  0  0  0  0  0  0  0  0  0
   -6.3300   -1.8628   14.5767 C   0  0  0  0  0  0  0  0  0  0  0  0
   -7.7996   -2.7157   14.3310 C   0  0  0  0  0  0  0  0  0  0  0  0
   -9.0442   -2.6157   15.0452 C   0  0  0  0  0  0  0  0  0  0  0  0
   -8.9078   -1.6698   16.0900 C   0  0  0  0  0  0  0  0  0  0  0  0
  -10.8713   -2.1896   16.9830 H   0  0  0  0  0  0  0  0  0  0  0  0
   -9.2832   -2.6799   20.2569 H   0  0  0  0  0  0  0  0  0  0  0  0
  -10.7492   -2.7107   19.3502 H   0  0  0  0  0  0  0  0  0  0  0  0
  -11.9604   -3.1354   20.2661 H   0  0  0  0  0  0  0  0  0  0  0  0
  -13.0888   -2.0148   20.4157 H   0  0  0  0  0  0  0  0  0  0  0  0
  -12.8590   -2.4181   22.8161 H   0  0  0  0  0  0  0  0  0  0  0  0
  -13.0763   -3.7937   21.6837 H   0  0  0  0  0  0  0  0  0  0  0  0
  -11.4198   -2.8622   24.3566 H   0  0  0  0  0  0  0  0  0  0  0  0
   -9.7056   -2.8719   23.7935 H   0  0  0  0  0  0  0  0  0  0  0  0
   -9.8227   -0.7319   23.2537 H   0  0  0  0  0  0  0  0  0  0  0  0
  -13.5814   -0.7315   25.7637 H   0  0  0  0  0  0  0  0  0  0  0  0
  -13.2190   -0.1802   28.1819 H   0  0  0  0  0  0  0  0  0  0  0  0
   -9.8100   -0.4421   26.7942 H   0  0  0  0  0  0  0  0  0  0  0  0
   -8.2617    0.7283   18.7874 H   0  0  0  0  0  0  0  0  0  0  0  0
   -9.0134    0.7013   17.1920 H   0  0  0  0  0  0  0  0  0  0  0  0
   -5.2899   -0.3400   15.7516 H   0  0  0  0  0  0  0  0  0  0  0  0
   -5.4262   -2.2809   14.1727 H   0  0  0  0  0  0  0  0  0  0  0  0
   -7.7756   -3.6761   13.8115 H   0  0  0  0  0  0  0  0  0  0  0  0
   -9.8832   -3.2555   14.8753 H   0  0  0  0  0  0  0  0  0  0  0  0
  1  2  2  0
  2  3  1  0
  3  4  1  0
  4  5  1  0
  5  6  1  0
  6  7  1  0
  7  8  1  0
  8  9  1  0
  9 10  1  0
 10 11  2  0
 11 12  1  0
 12 13  2  0
 13 14  1  0
  2 15  1  0
 15 16  1  0
 16 17  1  0
 17 18  2  0
 18 19  1  0
 19 20  2  0
 20 21  1  0
 21 22  2  0
 22  1  1  0
  9  4  1  0
 14 10  1  0
 22 17  1  0
  1 23  1  0
  3 24  1  0
  3 25  1  0
  5 26  1  0
  5 27  1  0
  6 28  1  0
  6 29  1  0
  8 30  1  0
  8 31  1  0
  9 32  1  0
 11 33  1  0
 12 34  1  0
 14 35  1  0
 15 36  1  0
 15 37  1  0
 18 38  1  0
 19 39  1  0
 20 40  1  0
 21 41  1  0
M  END
>  <Energy>  (691) 
679.47322788805525

>  <compound_id>  (691) 
9289

>  <target_id>  (691) 
1

>  <reference_id>  (691) 
7

>  <inspiration_ids>  (691) 
[91, 7]

>  <energy_score>  (691) 
558.2966152163438

>  <distance_score>  (691) 
9.518647577585277

>  <path>  (691) 
/opt/xchem-fragalysis-2/maxwin/BulkDock/SCRATCH/511023/C9289-P7/C9289-P7.minimised.mol

>  <scratch_subdir>  (691) 
/opt/xchem-fragalysis-2/maxwin/BulkDock/SCRATCH/511023/C9289-P7

>  <fragmenstein_runtime>  (691) 
12.338759422302246

>  <fragmenstein_outcome>  (691) 
too moved

>  <fragmenstein_mode>  (691) 
expansion

>  <fragmenstein_error>  (691) 


$$$$
C9281-P7
     RDKit          3D

 32 34  0  0  0  0  0  0  0  0999 V2000
  -14.9112   -1.9626   15.4825 O   0  0  0  0  0  0  0  0  0  0  0  0
  -13.7386   -1.8245   15.7220 C   0  0  0  0  0  0  0  0  0  0  0  0
  -12.9000   -2.3979   16.8100 N   0  0  0  0  0  0  0  0  0  0  0  0
  -13.2711   -3.5228   18.0127 S   0  0  0  0  0  0  0  0  0  0  0  0
  -12.4418   -4.6789   17.7275 O   0  0  0  0  0  0  0  0  0  0  0  0
  -14.7146   -3.6601   18.0466 O   0  0  0  0  0  0  0  0  0  0  0  0
  -12.8891   -3.1850   19.7515 C   0  0  0  0  0  0  0  0  0  0  0  0
  -13.7218   -3.5827   20.8485 C   0  0  0  0  0  0  0  0  0  0  0  0
  -13.0249   -3.2581   21.9905 C   0  0  0  0  0  0  0  0  0  0  0  0
  -11.8813   -2.6458   21.5625 N   0  0  0  0  0  0  0  0  0  0  0  0
  -11.7388   -2.6659   20.2147 N   0  0  0  0  0  0  0  0  0  0  0  0
  -13.0487   -0.9560   14.6445 C   0  0  0  0  0  0  0  0  0  0  0  0
  -12.1008   -1.3386   13.7628 C   0  0  0  0  0  0  0  0  0  0  0  0
  -11.9084   -0.5265   12.5170 C   0  0  0  0  0  0  0  0  0  0  0  0
  -11.2100   -0.9547   11.3603 C   0  0  0  0  0  0  0  0  0  0  0  0
  -10.9176   -0.0748   10.2967 C   0  0  0  0  0  0  0  0  0  0  0  0
   -9.8370   -0.6002    8.8208 Br  0  0  0  0  0  0  0  0  0  0  0  0
  -11.3415    1.2459   10.3616 C   0  0  0  0  0  0  0  0  0  0  0  0
  -12.0596    1.6789   11.4785 C   0  0  0  0  0  0  0  0  0  0  0  0
  -12.3518    0.7968   12.5289 C   0  0  0  0  0  0  0  0  0  0  0  0
  -13.0239    1.3074   13.6087 O   0  0  0  0  0  0  0  0  0  0  0  0
  -13.8034    0.3188   14.3218 C   0  0  0  0  0  0  0  0  0  0  0  0
  -11.9304   -2.1345   16.6582 H   0  0  0  0  0  0  0  0  0  0  0  0
  -14.6824   -4.0752   20.7823 H   0  0  0  0  0  0  0  0  0  0  0  0
  -13.2267   -3.3828   23.0431 H   0  0  0  0  0  0  0  0  0  0  0  0
  -11.1419   -2.2184   22.1202 H   0  0  0  0  0  0  0  0  0  0  0  0
  -11.5401   -2.2530   13.8778 H   0  0  0  0  0  0  0  0  0  0  0  0
  -10.7908   -1.9492   11.3209 H   0  0  0  0  0  0  0  0  0  0  0  0
  -11.1082    1.9493    9.5671 H   0  0  0  0  0  0  0  0  0  0  0  0
  -12.3910    2.7127   11.5391 H   0  0  0  0  0  0  0  0  0  0  0  0
  -14.1295    0.8044   15.2470 H   0  0  0  0  0  0  0  0  0  0  0  0
  -14.7062    0.0996   13.7370 H   0  0  0  0  0  0  0  0  0  0  0  0
  1  2  2  0
  2  3  1  0
  3  4  1  0
  4  5  2  0
  4  6  2  0
  4  7  1  0
  7  8  1  0
  8  9  2  0
  9 10  1  0
 10 11  1  0
  2 12  1  0
 12 13  2  0
 13 14  1  0
 14 15  2  0
 15 16  1  0
 16 17  1  0
 16 18  2  0
 18 19  1  0
 19 20  2  0
 20 21  1  0
 21 22  1  0
 11  7  2  0
 22 12  1  0
 20 14  1  0
  3 23  1  0
  8 24  1  0
  9 25  1  0
 10 26  1  0
 13 27  1  0
 15 28  1  0
 18 29  1  0
 19 30  1  0
 22 31  1  0
 22 32  1  0
M  END
>  <Energy>  (692) 
16.662991446329851

>  <compound_id>  (692) 
9281

>  <target_id>  (692) 
1

>  <reference_id>  (692) 
7

>  <inspiration_ids>  (692) 
[91, 7]

>  <energy_score>  (692) 
-8.840505713133922

>  <distance_score>  (692) 
11.724884000950258

>  <path>  (692) 
/opt/xchem-fragalysis-2/maxwin/BulkDock/SCRATCH/511023/C9281-P7/C9281-P7.minimised.mol

>  <scratch_subdir>  (692) 
/opt/xchem-fragalysis-2/maxwin/BulkDock/SCRATCH/511023/C9281-P7

>  <fragmenstein_runtime>  (692) 
29.451220512390137

>  <fragmenstein_outcome>  (692) 
too moved

>  <fragmenstein_mode>  (692) 
expansion

>  <fragmenstein_error>  (692) 


$$$$
C9282-P7
     RDKit          3D

 36 38  0  0  0  0  0  0  0  0999 V2000
  -11.6088    5.6743   15.1074 C   0  0  0  0  0  0  0  0  0  0  0  0
  -11.8551    4.2690   15.0203 O   0  0  0  0  0  0  0  0  0  0  0  0
  -12.9172    3.9181   15.8340 C   0  0  0  0  0  0  0  0  0  0  0  0
  -14.0051    3.3434   15.1990 C   0  0  0  0  0  0  0  0  0  0  0  0
  -15.0608    2.8754   15.9812 C   0  0  0  0  0  0  0  0  0  0  0  0
  -15.0306    2.9591   17.3966 C   0  0  0  0  0  0  0  0  0  0  0  0
  -13.9267    3.4803   18.0937 C   0  0  0  0  0  0  0  0  0  0  0  0
  -12.8738    3.9522   17.2625 C   0  0  0  0  0  0  0  0  0  0  0  0
  -11.6804    4.3255   17.7825 O   0  0  0  0  0  0  0  0  0  0  0  0
  -11.2715    3.5191   18.9411 C   0  0  0  0  0  0  0  0  0  0  0  0
  -12.6712    3.0704   20.3155 C   0  0  0  0  0  0  0  0  0  0  0  0
  -12.6519    2.6132   22.1709 C   0  0  0  0  0  0  0  0  0  0  0  0
  -12.9708    3.6117   22.8552 O   0  0  0  0  0  0  0  0  0  0  0  0
  -12.0638    0.8884   22.9422 N   0  0  0  0  0  0  0  0  0  0  0  0
  -11.9252    0.0685   25.2172 S   0  0  0  0  0  0  0  0  0  0  0  0
  -13.1766   -0.5889   25.7406 O   0  0  0  0  0  0  0  0  0  0  0  0
  -11.0140   -1.0209   24.8102 O   0  0  0  0  0  0  0  0  0  0  0  0
  -12.0540    0.4354   27.3667 C   0  0  0  0  0  0  0  0  0  0  0  0
  -13.4841    0.3329   27.9784 C   0  0  0  0  0  0  0  0  0  0  0  0
  -13.3544   -0.0676   29.2659 C   0  0  0  0  0  0  0  0  0  0  0  0
  -12.0978   -0.5363   29.2183 N   0  0  0  0  0  0  0  0  0  0  0  0
  -11.2117    0.0365   28.3471 N   0  0  0  0  0  0  0  0  0  0  0  0
  -13.8616    3.3121   19.6361 C   0  0  0  0  0  0  0  0  0  0  0  0
  -11.0692    5.9715   14.2029 H   0  0  0  0  0  0  0  0  0  0  0  0
  -10.9698    5.9048   15.9648 H   0  0  0  0  0  0  0  0  0  0  0  0
  -12.5363    6.2573   15.1509 H   0  0  0  0  0  0  0  0  0  0  0  0
  -14.0356    3.2566   14.1177 H   0  0  0  0  0  0  0  0  0  0  0  0
  -15.9274    2.4287   15.4970 H   0  0  0  0  0  0  0  0  0  0  0  0
  -15.8737    2.5503   17.9513 H   0  0  0  0  0  0  0  0  0  0  0  0
  -10.7229    2.7147   18.4373 H   0  0  0  0  0  0  0  0  0  0  0  0
  -10.3981    4.0463   19.3014 H   0  0  0  0  0  0  0  0  0  0  0  0
  -11.9468    0.2163   22.2166 H   0  0  0  0  0  0  0  0  0  0  0  0
  -14.4084    0.5144   27.4495 H   0  0  0  0  0  0  0  0  0  0  0  0
  -14.0677   -0.3020   30.0398 H   0  0  0  0  0  0  0  0  0  0  0  0
  -11.7699   -1.3235   29.7562 H   0  0  0  0  0  0  0  0  0  0  0  0
  -14.8127    3.2339   20.1506 H   0  0  0  0  0  0  0  0  0  0  0  0
  1  2  1  0
  2  3  1  0
  3  4  2  0
  4  5  1  0
  5  6  2  0
  6  7  1  0
  7  8  2  0
  8  9  1  0
  9 10  1  0
 10 11  1  0
 11 12  1  0
 12 13  2  0
 12 14  1  0
 14 15  1  0
 15 16  2  0
 15 17  2  0
 15 18  1  0
 18 19  1  0
 19 20  2  0
 20 21  1  0
 21 22  1  0
 11 23  2  0
  8  3  1  0
 22 18  2  0
 23  7  1  0
  1 24  1  0
  1 25  1  0
  1 26  1  0
  4 27  1  0
  5 28  1  0
  6 29  1  0
 10 30  1  0
 10 31  1  0
 14 32  1  0
 19 33  1  0
 20 34  1  0
 21 35  1  0
 23 36  1  0
M  END
>  <Energy>  (693) 
557.56320019688008

>  <compound_id>  (693) 
9282

>  <target_id>  (693) 
1

>  <reference_id>  (693) 
7

>  <inspiration_ids>  (693) 
[91, 7]

>  <energy_score>  (693) 
510.02847416414176

>  <distance_score>  (693) 
11.74058389998729

>  <path>  (693) 
/opt/xchem-fragalysis-2/maxwin/BulkDock/SCRATCH/511023/C9282-P7/C9282-P7.minimised.mol

>  <scratch_subdir>  (693) 
/opt/xchem-fragalysis-2/maxwin/BulkDock/SCRATCH/511023/C9282-P7

>  <fragmenstein_runtime>  (693) 
13.06429409980774

>  <fragmenstein_outcome>  (693) 
too moved

>  <fragmenstein_mode>  (693) 
expansion

>  <fragmenstein_error>  (693) 


$$$$
C9290-P7
     RDKit          3D

 42 45  0  0  0  0  0  0  0  0999 V2000
   -9.3008   -1.8266   18.8247 O   0  0  0  0  0  0  0  0  0  0  0  0
  -10.4620   -2.0423   18.6290 C   0  0  0  0  0  0  0  0  0  0  0  0
  -10.7702   -2.1771   16.7571 C   0  0  0  0  0  0  0  0  0  0  0  0
  -10.3193   -2.4496   15.4094 C   0  0  0  0  0  0  0  0  0  0  0  0
  -11.0863   -1.6428   13.9037 C   0  0  0  0  0  0  0  0  0  0  0  0
  -10.9458   -1.6758   12.5016 C   0  0  0  0  0  0  0  0  0  0  0  0
  -11.5153   -0.7947   11.5121 C   0  0  0  0  0  0  0  0  0  0  0  0
  -12.2176    0.3135   11.8958 C   0  0  0  0  0  0  0  0  0  0  0  0
  -12.3114    0.5100   13.2489 C   0  0  0  0  0  0  0  0  0  0  0  0
  -11.7578   -0.4437   14.1448 C   0  0  0  0  0  0  0  0  0  0  0  0
  -11.8418   -0.1190   15.4297 O   0  0  0  0  0  0  0  0  0  0  0  0
  -11.8284   -1.2812   16.3142 C   0  0  0  0  0  0  0  0  0  0  0  0
  -11.5618   -1.9851   20.0848 N   0  0  0  0  0  0  0  0  0  0  0  0
  -11.9096   -3.2004   20.9909 C   0  0  0  0  0  0  0  0  0  0  0  0
  -12.1404   -2.8862   22.9149 C   0  0  0  0  0  0  0  0  0  0  0  0
  -11.8615   -1.8582   24.5362 C   0  0  0  0  0  0  0  0  0  0  0  0
  -13.0942   -0.7666   25.8927 C   0  0  0  0  0  0  0  0  0  0  0  0
  -12.8457    0.0008   27.4923 C   0  0  0  0  0  0  0  0  0  0  0  0
  -13.2824   -0.9702   29.1475 C   0  0  0  0  0  0  0  0  0  0  0  0
  -14.2072   -1.7282   28.7024 N   0  0  0  0  0  0  0  0  0  0  0  0
  -13.0440   -1.0627   27.5962 N   0  0  0  0  0  0  0  0  0  0  0  0
  -10.7247   -1.4052   23.3044 C   0  0  0  0  0  0  0  0  0  0  0  0
  -11.2894   -1.5827   21.5594 C   0  0  0  0  0  0  0  0  0  0  0  0
   -9.4117   -2.9947   15.1601 H   0  0  0  0  0  0  0  0  0  0  0  0
  -10.3733   -2.3733   11.9671 H   0  0  0  0  0  0  0  0  0  0  0  0
  -11.3212   -0.9861   10.4577 H   0  0  0  0  0  0  0  0  0  0  0  0
  -12.6233    1.0192   11.1821 H   0  0  0  0  0  0  0  0  0  0  0  0
  -12.7931    1.3996   13.6484 H   0  0  0  0  0  0  0  0  0  0  0  0
  -12.4590   -1.2476   17.1772 H   0  0  0  0  0  0  0  0  0  0  0  0
  -12.3008   -1.7858   15.5799 H   0  0  0  0  0  0  0  0  0  0  0  0
  -11.1749   -3.9626   20.8045 H   0  0  0  0  0  0  0  0  0  0  0  0
  -12.8801   -3.5580   20.6369 H   0  0  0  0  0  0  0  0  0  0  0  0
  -11.8315   -3.8231   23.2822 H   0  0  0  0  0  0  0  0  0  0  0  0
  -13.0936   -2.5567   22.7247 H   0  0  0  0  0  0  0  0  0  0  0  0
  -11.6936   -2.8055   24.9609 H   0  0  0  0  0  0  0  0  0  0  0  0
  -13.5973    0.7724   27.5031 H   0  0  0  0  0  0  0  0  0  0  0  0
  -13.1681   -1.0072   30.2262 H   0  0  0  0  0  0  0  0  0  0  0  0
  -12.2431   -1.3896   28.1000 H   0  0  0  0  0  0  0  0  0  0  0  0
   -9.8274   -2.0207   23.4760 H   0  0  0  0  0  0  0  0  0  0  0  0
  -10.4063   -0.3980   23.2851 H   0  0  0  0  0  0  0  0  0  0  0  0
  -12.2349   -1.1111   21.7265 H   0  0  0  0  0  0  0  0  0  0  0  0
  -10.5003   -2.3230   21.6732 H   0  0  0  0  0  0  0  0  0  0  0  0
  1  2  2  0
  2  3  1  0
  3  4  2  0
  4  5  1  0
  5  6  2  0
  6  7  1  0
  7  8  2  0
  8  9  1  0
  9 10  2  0
 10 11  1  0
 11 12  1  0
  2 13  1  0
 13 14  1  0
 14 15  1  0
 15 16  1  0
 16 17  1  0
 17 18  2  0
 18 19  1  0
 19 20  2  0
 20 21  1  0
 16 22  1  0
 22 23  1  0
 12  3  1  0
 23 13  1  0
 10  5  1  0
 21 17  1  0
  4 24  1  0
  6 25  1  0
  7 26  1  0
  8 27  1  0
  9 28  1  0
 12 29  1  0
 12 30  1  0
 14 31  1  0
 14 32  1  0
 15 33  1  0
 15 34  1  0
 16 35  1  0
 18 36  1  0
 19 37  1  0
 21 38  1  0
 22 39  1  0
 22 40  1  0
 23 41  1  0
 23 42  1  0
M  END
>  <Energy>  (694) 
1392.6967013920271

>  <compound_id>  (694) 
9290

>  <target_id>  (694) 
1

>  <reference_id>  (694) 
7

>  <inspiration_ids>  (694) 
[91, 7]

>  <energy_score>  (694) 
1327.0234079657077

>  <distance_score>  (694) 
9.05044403922943

>  <path>  (694) 
/opt/xchem-fragalysis-2/maxwin/BulkDock/SCRATCH/511023/C9290-P7/C9290-P7.minimised.mol

>  <scratch_subdir>  (694) 
/opt/xchem-fragalysis-2/maxwin/BulkDock/SCRATCH/511023/C9290-P7

>  <fragmenstein_runtime>  (694) 
16.99021863937378

>  <fragmenstein_outcome>  (694) 
too moved

>  <fragmenstein_mode>  (694) 
expansion

>  <fragmenstein_error>  (694) 


$$$$
C9291-P7
     RDKit          3D

 42 45  0  0  0  0  0  0  0  0999 V2000
  -12.5518   -1.9413   19.1127 O   0  0  0  0  0  0  0  0  0  0  0  0
  -11.7758   -2.8149   19.1830 C   0  0  0  0  0  0  0  0  0  0  0  0
  -11.6587   -3.5387   17.7455 C   0  0  0  0  0  0  0  0  0  0  0  0
  -12.3490   -4.3541   16.8848 C   0  0  0  0  0  0  0  0  0  0  0  0
  -12.6883   -3.7180   15.5334 C   0  0  0  0  0  0  0  0  0  0  0  0
  -14.0105   -3.7264   15.0456 C   0  0  0  0  0  0  0  0  0  0  0  0
  -14.4554   -2.7061   14.1674 C   0  0  0  0  0  0  0  0  0  0  0  0
  -13.5844   -1.6999   13.7160 C   0  0  0  0  0  0  0  0  0  0  0  0
  -12.2517   -1.7216   14.1128 C   0  0  0  0  0  0  0  0  0  0  0  0
  -11.8337   -2.7213   15.0099 C   0  0  0  0  0  0  0  0  0  0  0  0
  -10.6236   -2.5785   15.6233 O   0  0  0  0  0  0  0  0  0  0  0  0
  -11.0389   -2.2818   16.9530 C   0  0  0  0  0  0  0  0  0  0  0  0
  -10.9075   -3.1601   20.3392 N   0  0  0  0  0  0  0  0  0  0  0  0
   -9.6444   -2.4792   20.2242 C   0  0  0  0  0  0  0  0  0  0  0  0
   -8.0886   -2.7655   21.3183 C   0  0  0  0  0  0  0  0  0  0  0  0
   -8.6926   -2.4992   22.9596 C   0  0  0  0  0  0  0  0  0  0  0  0
   -9.6998   -1.4860   23.3072 C   0  0  0  0  0  0  0  0  0  0  0  0
   -8.4204   -1.2605   24.5249 C   0  0  0  0  0  0  0  0  0  0  0  0
   -7.7176   -0.3384   25.3357 C   0  0  0  0  0  0  0  0  0  0  0  0
   -8.1764   -0.7012   26.6493 C   0  0  0  0  0  0  0  0  0  0  0  0
   -7.8792   -1.9673   26.6804 N   0  0  0  0  0  0  0  0  0  0  0  0
   -8.0367   -2.2437   25.3426 N   0  0  0  0  0  0  0  0  0  0  0  0
  -10.8398   -2.4516   22.0702 C   0  0  0  0  0  0  0  0  0  0  0  0
  -13.1032   -5.0374   17.2545 H   0  0  0  0  0  0  0  0  0  0  0  0
  -14.7373   -4.4205   15.4590 H   0  0  0  0  0  0  0  0  0  0  0  0
  -15.4997   -2.6891   13.8645 H   0  0  0  0  0  0  0  0  0  0  0  0
  -13.9478   -0.9180   13.0557 H   0  0  0  0  0  0  0  0  0  0  0  0
  -11.5743   -0.9438   13.7861 H   0  0  0  0  0  0  0  0  0  0  0  0
  -11.8085   -1.5218   16.9141 H   0  0  0  0  0  0  0  0  0  0  0  0
  -10.2041   -1.7832   17.4491 H   0  0  0  0  0  0  0  0  0  0  0  0
   -9.2849   -2.6382   19.2583 H   0  0  0  0  0  0  0  0  0  0  0  0
   -9.6019   -1.5427   19.7051 H   0  0  0  0  0  0  0  0  0  0  0  0
   -7.4640   -1.9945   21.1247 H   0  0  0  0  0  0  0  0  0  0  0  0
   -7.3030   -3.5510   21.2082 H   0  0  0  0  0  0  0  0  0  0  0  0
   -7.7594   -2.8055   23.4771 H   0  0  0  0  0  0  0  0  0  0  0  0
   -9.3302   -3.2496   23.4619 H   0  0  0  0  0  0  0  0  0  0  0  0
   -9.8032   -0.4537   23.0111 H   0  0  0  0  0  0  0  0  0  0  0  0
   -7.4317    0.6948   25.1582 H   0  0  0  0  0  0  0  0  0  0  0  0
   -8.5111   -0.1879   27.5233 H   0  0  0  0  0  0  0  0  0  0  0  0
   -8.3613   -3.1940   25.1610 H   0  0  0  0  0  0  0  0  0  0  0  0
  -11.4856   -3.1086   22.6534 H   0  0  0  0  0  0  0  0  0  0  0  0
  -11.5303   -1.6229   21.8479 H   0  0  0  0  0  0  0  0  0  0  0  0
  1  2  2  0
  2  3  1  0
  3  4  2  0
  4  5  1  0
  5  6  2  0
  6  7  1  0
  7  8  2  0
  8  9  1  0
  9 10  2  0
 10 11  1  0
 11 12  1  0
  2 13  1  0
 13 14  1  0
 14 15  1  0
 15 16  1  0
 16 17  1  0
 17 18  1  0
 18 19  2  0
 19 20  1  0
 20 21  2  0
 21 22  1  0
 17 23  1  0
 12  3  1  0
 23 13  1  0
 10  5  1  0
 22 18  1  0
  4 24  1  0
  6 25  1  0
  7 26  1  0
  8 27  1  0
  9 28  1  0
 12 29  1  0
 12 30  1  0
 14 31  1  0
 14 32  1  0
 15 33  1  0
 15 34  1  0
 16 35  1  0
 16 36  1  0
 17 37  1  0
 19 38  1  0
 20 39  1  0
 22 40  1  0
 23 41  1  0
 23 42  1  0
M  END
>  <Energy>  (695) 
573.17819604022532

>  <compound_id>  (695) 
9291

>  <target_id>  (695) 
1

>  <reference_id>  (695) 
7

>  <inspiration_ids>  (695) 
[91, 7]

>  <energy_score>  (695) 
495.0727561686855

>  <distance_score>  (695) 
11.258504816962395

>  <path>  (695) 
/opt/xchem-fragalysis-2/maxwin/BulkDock/SCRATCH/511023/C9291-P7/C9291-P7.minimised.mol

>  <scratch_subdir>  (695) 
/opt/xchem-fragalysis-2/maxwin/BulkDock/SCRATCH/511023/C9291-P7

>  <fragmenstein_runtime>  (695) 
26.297492027282715

>  <fragmenstein_outcome>  (695) 
too moved

>  <fragmenstein_mode>  (695) 
expansion

>  <fragmenstein_error>  (695) 


$$$$
C9290-P7
     RDKit          3D

 42 45  0  0  0  0  0  0  0  0999 V2000
   -9.3008   -1.8266   18.8247 O   0  0  0  0  0  0  0  0  0  0  0  0
  -10.4620   -2.0423   18.6290 C   0  0  0  0  0  0  0  0  0  0  0  0
  -10.7702   -2.1771   16.7571 C   0  0  0  0  0  0  0  0  0  0  0  0
  -10.3193   -2.4496   15.4094 C   0  0  0  0  0  0  0  0  0  0  0  0
  -11.0863   -1.6428   13.9037 C   0  0  0  0  0  0  0  0  0  0  0  0
  -10.9458   -1.6758   12.5016 C   0  0  0  0  0  0  0  0  0  0  0  0
  -11.5153   -0.7947   11.5121 C   0  0  0  0  0  0  0  0  0  0  0  0
  -12.2176    0.3135   11.8958 C   0  0  0  0  0  0  0  0  0  0  0  0
  -12.3114    0.5100   13.2489 C   0  0  0  0  0  0  0  0  0  0  0  0
  -11.7578   -0.4437   14.1448 C   0  0  0  0  0  0  0  0  0  0  0  0
  -11.8418   -0.1190   15.4297 O   0  0  0  0  0  0  0  0  0  0  0  0
  -11.8284   -1.2812   16.3142 C   0  0  0  0  0  0  0  0  0  0  0  0
  -11.5618   -1.9851   20.0848 N   0  0  0  0  0  0  0  0  0  0  0  0
  -11.9096   -3.2004   20.9909 C   0  0  0  0  0  0  0  0  0  0  0  0
  -12.1404   -2.8862   22.9149 C   0  0  0  0  0  0  0  0  0  0  0  0
  -11.8615   -1.8582   24.5362 C   0  0  0  0  0  0  0  0  0  0  0  0
  -13.0942   -0.7666   25.8927 C   0  0  0  0  0  0  0  0  0  0  0  0
  -12.8457    0.0008   27.4923 C   0  0  0  0  0  0  0  0  0  0  0  0
  -13.2824   -0.9702   29.1475 C   0  0  0  0  0  0  0  0  0  0  0  0
  -14.2072   -1.7282   28.7024 N   0  0  0  0  0  0  0  0  0  0  0  0
  -13.0440   -1.0627   27.5962 N   0  0  0  0  0  0  0  0  0  0  0  0
  -10.7247   -1.4052   23.3044 C   0  0  0  0  0  0  0  0  0  0  0  0
  -11.2894   -1.5827   21.5594 C   0  0  0  0  0  0  0  0  0  0  0  0
   -9.4117   -2.9947   15.1601 H   0  0  0  0  0  0  0  0  0  0  0  0
  -10.3733   -2.3733   11.9671 H   0  0  0  0  0  0  0  0  0  0  0  0
  -11.3212   -0.9861   10.4577 H   0  0  0  0  0  0  0  0  0  0  0  0
  -12.6233    1.0192   11.1821 H   0  0  0  0  0  0  0  0  0  0  0  0
  -12.7931    1.3996   13.6484 H   0  0  0  0  0  0  0  0  0  0  0  0
  -12.4590   -1.2476   17.1772 H   0  0  0  0  0  0  0  0  0  0  0  0
  -12.3008   -1.7858   15.5799 H   0  0  0  0  0  0  0  0  0  0  0  0
  -11.1749   -3.9626   20.8045 H   0  0  0  0  0  0  0  0  0  0  0  0
  -12.8801   -3.5580   20.6369 H   0  0  0  0  0  0  0  0  0  0  0  0
  -11.8315   -3.8231   23.2822 H   0  0  0  0  0  0  0  0  0  0  0  0
  -13.0936   -2.5567   22.7247 H   0  0  0  0  0  0  0  0  0  0  0  0
  -11.6936   -2.8055   24.9609 H   0  0  0  0  0  0  0  0  0  0  0  0
  -13.5973    0.7724   27.5031 H   0  0  0  0  0  0  0  0  0  0  0  0
  -13.1681   -1.0072   30.2262 H   0  0  0  0  0  0  0  0  0  0  0  0
  -12.2431   -1.3896   28.1000 H   0  0  0  0  0  0  0  0  0  0  0  0
   -9.8274   -2.0207   23.4760 H   0  0  0  0  0  0  0  0  0  0  0  0
  -10.4063   -0.3980   23.2851 H   0  0  0  0  0  0  0  0  0  0  0  0
  -12.2349   -1.1111   21.7265 H   0  0  0  0  0  0  0  0  0  0  0  0
  -10.5003   -2.3230   21.6732 H   0  0  0  0  0  0  0  0  0  0  0  0
  1  2  2  0
  2  3  1  0
  3  4  2  0
  4  5  1  0
  5  6  2  0
  6  7  1  0
  7  8  2  0
  8  9  1  0
  9 10  2  0
 10 11  1  0
 11 12  1  0
  2 13  1  0
 13 14  1  0
 14 15  1  0
 15 16  1  0
 16 17  1  0
 17 18  2  0
 18 19  1  0
 19 20  2  0
 20 21  1  0
 16 22  1  0
 22 23  1  0
 12  3  1  0
 23 13  1  0
 10  5  1  0
 21 17  1  0
  4 24  1  0
  6 25  1  0
  7 26  1  0
  8 27  1  0
  9 28  1  0
 12 29  1  0
 12 30  1  0
 14 31  1  0
 14 32  1  0
 15 33  1  0
 15 34  1  0
 16 35  1  0
 18 36  1  0
 19 37  1  0
 21 38  1  0
 22 39  1  0
 22 40  1  0
 23 41  1  0
 23 42  1  0
M  END
>  <Energy>  (696) 
1392.6967013920271

>  <compound_id>  (696) 
9290

>  <target_id>  (696) 
1

>  <reference_id>  (696) 
7

>  <inspiration_ids>  (696) 
[91, 7]

>  <energy_score>  (696) 
1327.0234079657077

>  <distance_score>  (696) 
9.05044403922943

>  <path>  (696) 
/opt/xchem-fragalysis-2/maxwin/BulkDock/SCRATCH/511023/C9290-P7/C9290-P7.minimised.mol

>  <scratch_subdir>  (696) 
/opt/xchem-fragalysis-2/maxwin/BulkDock/SCRATCH/511023/C9290-P7

>  <fragmenstein_runtime>  (696) 
17.56258249282837

>  <fragmenstein_outcome>  (696) 
too moved

>  <fragmenstein_mode>  (696) 
expansion

>  <fragmenstein_error>  (696) 


$$$$
C9291-P7
     RDKit          3D

 42 45  0  0  0  0  0  0  0  0999 V2000
  -12.5518   -1.9413   19.1127 O   0  0  0  0  0  0  0  0  0  0  0  0
  -11.7758   -2.8149   19.1830 C   0  0  0  0  0  0  0  0  0  0  0  0
  -11.6587   -3.5387   17.7455 C   0  0  0  0  0  0  0  0  0  0  0  0
  -12.3490   -4.3541   16.8848 C   0  0  0  0  0  0  0  0  0  0  0  0
  -12.6883   -3.7180   15.5334 C   0  0  0  0  0  0  0  0  0  0  0  0
  -14.0105   -3.7264   15.0456 C   0  0  0  0  0  0  0  0  0  0  0  0
  -14.4554   -2.7061   14.1674 C   0  0  0  0  0  0  0  0  0  0  0  0
  -13.5844   -1.6999   13.7160 C   0  0  0  0  0  0  0  0  0  0  0  0
  -12.2517   -1.7216   14.1128 C   0  0  0  0  0  0  0  0  0  0  0  0
  -11.8337   -2.7213   15.0099 C   0  0  0  0  0  0  0  0  0  0  0  0
  -10.6236   -2.5785   15.6233 O   0  0  0  0  0  0  0  0  0  0  0  0
  -11.0389   -2.2818   16.9530 C   0  0  0  0  0  0  0  0  0  0  0  0
  -10.9075   -3.1601   20.3392 N   0  0  0  0  0  0  0  0  0  0  0  0
   -9.6444   -2.4792   20.2242 C   0  0  0  0  0  0  0  0  0  0  0  0
   -8.0886   -2.7655   21.3183 C   0  0  0  0  0  0  0  0  0  0  0  0
   -8.6926   -2.4992   22.9596 C   0  0  0  0  0  0  0  0  0  0  0  0
   -9.6998   -1.4860   23.3072 C   0  0  0  0  0  0  0  0  0  0  0  0
   -8.4204   -1.2605   24.5249 C   0  0  0  0  0  0  0  0  0  0  0  0
   -7.7176   -0.3384   25.3357 C   0  0  0  0  0  0  0  0  0  0  0  0
   -8.1764   -0.7012   26.6493 C   0  0  0  0  0  0  0  0  0  0  0  0
   -7.8792   -1.9673   26.6804 N   0  0  0  0  0  0  0  0  0  0  0  0
   -8.0367   -2.2437   25.3426 N   0  0  0  0  0  0  0  0  0  0  0  0
  -10.8398   -2.4516   22.0702 C   0  0  0  0  0  0  0  0  0  0  0  0
  -13.1032   -5.0374   17.2545 H   0  0  0  0  0  0  0  0  0  0  0  0
  -14.7373   -4.4205   15.4590 H   0  0  0  0  0  0  0  0  0  0  0  0
  -15.4997   -2.6891   13.8645 H   0  0  0  0  0  0  0  0  0  0  0  0
  -13.9478   -0.9180   13.0557 H   0  0  0  0  0  0  0  0  0  0  0  0
  -11.5743   -0.9438   13.7861 H   0  0  0  0  0  0  0  0  0  0  0  0
  -11.8085   -1.5218   16.9141 H   0  0  0  0  0  0  0  0  0  0  0  0
  -10.2041   -1.7832   17.4491 H   0  0  0  0  0  0  0  0  0  0  0  0
   -9.2849   -2.6382   19.2583 H   0  0  0  0  0  0  0  0  0  0  0  0
   -9.6019   -1.5427   19.7051 H   0  0  0  0  0  0  0  0  0  0  0  0
   -7.4640   -1.9945   21.1247 H   0  0  0  0  0  0  0  0  0  0  0  0
   -7.3030   -3.5510   21.2082 H   0  0  0  0  0  0  0  0  0  0  0  0
   -7.7594   -2.8055   23.4771 H   0  0  0  0  0  0  0  0  0  0  0  0
   -9.3302   -3.2496   23.4619 H   0  0  0  0  0  0  0  0  0  0  0  0
   -9.8032   -0.4537   23.0111 H   0  0  0  0  0  0  0  0  0  0  0  0
   -7.4317    0.6948   25.1582 H   0  0  0  0  0  0  0  0  0  0  0  0
   -8.5111   -0.1879   27.5233 H   0  0  0  0  0  0  0  0  0  0  0  0
   -8.3613   -3.1940   25.1610 H   0  0  0  0  0  0  0  0  0  0  0  0
  -11.4856   -3.1086   22.6534 H   0  0  0  0  0  0  0  0  0  0  0  0
  -11.5303   -1.6229   21.8479 H   0  0  0  0  0  0  0  0  0  0  0  0
  1  2  2  0
  2  3  1  0
  3  4  2  0
  4  5  1  0
  5  6  2  0
  6  7  1  0
  7  8  2  0
  8  9  1  0
  9 10  2  0
 10 11  1  0
 11 12  1  0
  2 13  1  0
 13 14  1  0
 14 15  1  0
 15 16  1  0
 16 17  1  0
 17 18  1  0
 18 19  2  0
 19 20  1  0
 20 21  2  0
 21 22  1  0
 17 23  1  0
 12  3  1  0
 23 13  1  0
 10  5  1  0
 22 18  1  0
  4 24  1  0
  6 25  1  0
  7 26  1  0
  8 27  1  0
  9 28  1  0
 12 29  1  0
 12 30  1  0
 14 31  1  0
 14 32  1  0
 15 33  1  0
 15 34  1  0
 16 35  1  0
 16 36  1  0
 17 37  1  0
 19 38  1  0
 20 39  1  0
 22 40  1  0
 23 41  1  0
 23 42  1  0
M  END
>  <Energy>  (697) 
573.17819604022532

>  <compound_id>  (697) 
9291

>  <target_id>  (697) 
1

>  <reference_id>  (697) 
7

>  <inspiration_ids>  (697) 
[91, 7]

>  <energy_score>  (697) 
495.0727561686855

>  <distance_score>  (697) 
11.258504816962395

>  <path>  (697) 
/opt/xchem-fragalysis-2/maxwin/BulkDock/SCRATCH/511023/C9291-P7/C9291-P7.minimised.mol

>  <scratch_subdir>  (697) 
/opt/xchem-fragalysis-2/maxwin/BulkDock/SCRATCH/511023/C9291-P7

>  <fragmenstein_runtime>  (697) 
16.822840929031372

>  <fragmenstein_outcome>  (697) 
too moved

>  <fragmenstein_mode>  (697) 
expansion

>  <fragmenstein_error>  (697) 


$$$$
C9283-P7
     RDKit          3D

 38 40  0  0  0  0  0  0  0  0999 V2000
  -13.3990    0.8060   10.9432 C   0  0  0  0  0  0  0  0  0  0  0  0
  -12.4618    1.9925   11.0149 N   0  0  0  0  0  0  0  0  0  0  0  0
  -13.5154    2.4820   12.0320 C   0  0  0  0  0  0  0  0  0  0  0  0
  -13.3647    1.9169   13.4423 C   0  0  0  0  0  0  0  0  0  0  0  0
  -12.2077    1.3120   13.9718 C   0  0  0  0  0  0  0  0  0  0  0  0
  -12.7159    0.4069   14.8550 C   0  0  0  0  0  0  0  0  0  0  0  0
  -13.9851    0.8198   15.1181 N   0  0  0  0  0  0  0  0  0  0  0  0
  -14.4300    1.7174   14.2367 N   0  0  0  0  0  0  0  0  0  0  0  0
  -12.1540    2.4502    9.7057 C   0  0  0  0  0  0  0  0  0  0  0  0
  -12.6930    3.2749    9.0202 O   0  0  0  0  0  0  0  0  0  0  0  0
  -10.8805    1.8420    9.1806 C   0  0  0  0  0  0  0  0  0  0  0  0
  -10.7668    0.6000    8.6802 C   0  0  0  0  0  0  0  0  0  0  0  0
   -9.4401    0.1514    8.2400 C   0  0  0  0  0  0  0  0  0  0  0  0
   -9.1782   -1.1824    7.9087 C   0  0  0  0  0  0  0  0  0  0  0  0
   -7.9056   -1.5766    7.4743 C   0  0  0  0  0  0  0  0  0  0  0  0
   -6.8844   -0.6373    7.3517 C   0  0  0  0  0  0  0  0  0  0  0  0
   -7.1422    0.6969    7.6575 C   0  0  0  0  0  0  0  0  0  0  0  0
   -8.4082    1.0813    8.1106 C   0  0  0  0  0  0  0  0  0  0  0  0
   -8.5889    2.4115    8.3562 O   0  0  0  0  0  0  0  0  0  0  0  0
   -9.6796    2.7690    9.2526 C   0  0  0  0  0  0  0  0  0  0  0  0
   -9.9450    4.2748    9.0534 C   0  0  0  0  0  0  0  0  0  0  0  0
  -10.7100    4.7934   10.0440 F   0  0  0  0  0  0  0  0  0  0  0  0
   -8.7783    4.9754    9.0893 F   0  0  0  0  0  0  0  0  0  0  0  0
  -10.5261    4.5556    7.8668 F   0  0  0  0  0  0  0  0  0  0  0  0
  -12.9079    0.0774   10.2882 H   0  0  0  0  0  0  0  0  0  0  0  0
  -14.3329    1.0261   10.4025 H   0  0  0  0  0  0  0  0  0  0  0  0
  -13.5492    0.2132   11.8516 H   0  0  0  0  0  0  0  0  0  0  0  0
  -13.2459    3.5452   12.1355 H   0  0  0  0  0  0  0  0  0  0  0  0
  -14.5517    2.5496   11.6623 H   0  0  0  0  0  0  0  0  0  0  0  0
  -11.2238    1.3129   13.5387 H   0  0  0  0  0  0  0  0  0  0  0  0
  -12.2590   -0.4529   15.3192 H   0  0  0  0  0  0  0  0  0  0  0  0
  -14.6357    0.4752   15.8098 H   0  0  0  0  0  0  0  0  0  0  0  0
  -11.5962   -0.0884    8.5904 H   0  0  0  0  0  0  0  0  0  0  0  0
   -9.9576   -1.9349    7.9931 H   0  0  0  0  0  0  0  0  0  0  0  0
   -7.7198   -2.6208    7.2324 H   0  0  0  0  0  0  0  0  0  0  0  0
   -5.8991   -0.9434    7.0111 H   0  0  0  0  0  0  0  0  0  0  0  0
   -6.3628    1.4430    7.5444 H   0  0  0  0  0  0  0  0  0  0  0  0
   -9.2996    2.6628   10.2728 H   0  0  0  0  0  0  0  0  0  0  0  0
  1  2  1  0
  2  3  1  0
  3  4  1  0
  4  5  1  0
  5  6  2  0
  6  7  1  0
  7  8  1  0
  2  9  1  0
  9 10  2  0
  9 11  1  0
 11 12  2  0
 12 13  1  0
 13 14  2  0
 14 15  1  0
 15 16  2  0
 16 17  1  0
 17 18  2  0
 18 19  1  0
 19 20  1  0
 20 21  1  0
 21 22  1  0
 21 23  1  0
 21 24  1  0
  8  4  2  0
 20 11  1  0
 18 13  1  0
  1 25  1  0
  1 26  1  0
  1 27  1  0
  3 28  1  0
  3 29  1  0
  5 30  1  0
  6 31  1  0
  7 32  1  0
 12 33  1  0
 14 34  1  0
 15 35  1  0
 16 36  1  0
 17 37  1  0
 20 38  1  0
M  END
>  <Energy>  (698) 
141.58386218629994

>  <compound_id>  (698) 
9283

>  <target_id>  (698) 
1

>  <reference_id>  (698) 
7

>  <inspiration_ids>  (698) 
[91, 7]

>  <energy_score>  (698) 
32.11630146774013

>  <distance_score>  (698) 
14.09021599433255

>  <path>  (698) 
/opt/xchem-fragalysis-2/maxwin/BulkDock/SCRATCH/511023/C9283-P7/C9283-P7.minimised.mol

>  <scratch_subdir>  (698) 
/opt/xchem-fragalysis-2/maxwin/BulkDock/SCRATCH/511023/C9283-P7

>  <fragmenstein_runtime>  (698) 
16.75528645515442

>  <fragmenstein_outcome>  (698) 
too moved

>  <fragmenstein_mode>  (698) 
expansion

>  <fragmenstein_error>  (698) 


$$$$
C46647-P7
     RDKit          3D

 38 41  0  0  0  0  0  0  0  0999 V2000
  -10.2969    5.2236   17.7611 O   0  0  0  0  0  0  0  0  0  0  0  0
  -11.3242    4.7436   17.2691 C   0  0  0  0  0  0  0  0  0  0  0  0
  -12.4717    4.5695   18.0264 O   0  0  0  0  0  0  0  0  0  0  0  0
  -12.2685    5.0683   19.4207 C   0  0  0  0  0  0  0  0  0  0  0  0
  -13.2918    4.8739   20.5640 C   0  0  0  0  0  0  0  0  0  0  0  0
  -14.4952    4.2930   20.3705 N   0  0  0  0  0  0  0  0  0  0  0  0
  -15.1834    4.4850   21.5265 N   0  0  0  0  0  0  0  0  0  0  0  0
  -14.4267    5.0593   22.4783 C   0  0  0  0  0  0  0  0  0  0  0  0
  -13.2026    5.3056   21.9306 C   0  0  0  0  0  0  0  0  0  0  0  0
  -12.3440    5.9855   22.9326 C   0  0  0  0  0  0  0  0  0  0  0  0
  -13.3782    6.4238   24.0274 C   0  0  0  0  0  0  0  0  0  0  0  0
  -14.6304    5.5060   23.8610 C   0  0  0  0  0  0  0  0  0  0  0  0
  -11.2687    4.3309   15.8074 C   0  0  0  0  0  0  0  0  0  0  0  0
  -12.0750    3.5168   15.0990 C   0  0  0  0  0  0  0  0  0  0  0  0
  -11.6527    3.1140   13.7315 C   0  0  0  0  0  0  0  0  0  0  0  0
  -12.2079    2.0182   13.0562 C   0  0  0  0  0  0  0  0  0  0  0  0
  -11.7941    1.6874   11.7529 C   0  0  0  0  0  0  0  0  0  0  0  0
  -10.8320    2.4577   11.1002 C   0  0  0  0  0  0  0  0  0  0  0  0
  -10.2780    3.5531   11.7574 C   0  0  0  0  0  0  0  0  0  0  0  0
  -10.6655    3.8524   13.0695 C   0  0  0  0  0  0  0  0  0  0  0  0
  -10.0635    4.9274   13.6606 O   0  0  0  0  0  0  0  0  0  0  0  0
  -10.0219    4.8632   15.0996 C   0  0  0  0  0  0  0  0  0  0  0  0
  -12.0878    6.1482   19.3448 H   0  0  0  0  0  0  0  0  0  0  0  0
  -11.3662    4.5758   19.7674 H   0  0  0  0  0  0  0  0  0  0  0  0
  -16.1510    4.1821   21.5654 H   0  0  0  0  0  0  0  0  0  0  0  0
  -11.8186    6.8519   22.5224 H   0  0  0  0  0  0  0  0  0  0  0  0
  -11.6251    5.2924   23.3746 H   0  0  0  0  0  0  0  0  0  0  0  0
  -12.9579    6.3744   25.0368 H   0  0  0  0  0  0  0  0  0  0  0  0
  -13.6712    7.4658   23.8420 H   0  0  0  0  0  0  0  0  0  0  0  0
  -14.5865    4.6685   24.5629 H   0  0  0  0  0  0  0  0  0  0  0  0
  -15.5577    6.0651   24.0079 H   0  0  0  0  0  0  0  0  0  0  0  0
  -12.9842    3.0934   15.5051 H   0  0  0  0  0  0  0  0  0  0  0  0
  -12.9663    1.4061   13.5386 H   0  0  0  0  0  0  0  0  0  0  0  0
  -12.2276    0.8257   11.2507 H   0  0  0  0  0  0  0  0  0  0  0  0
  -10.5142    2.2050   10.0926 H   0  0  0  0  0  0  0  0  0  0  0  0
   -9.5343    4.1683   11.2596 H   0  0  0  0  0  0  0  0  0  0  0  0
   -9.8317    5.8944   15.4187 H   0  0  0  0  0  0  0  0  0  0  0  0
   -9.1458    4.2667   15.3773 H   0  0  0  0  0  0  0  0  0  0  0  0
  1  2  2  0
  2  3  1  0
  3  4  1  0
  4  5  1  0
  5  6  2  0
  6  7  1  0
  7  8  1  0
  8  9  2  0
  9 10  1  0
 10 11  1  0
 11 12  1  0
  2 13  1  0
 13 14  2  0
 14 15  1  0
 15 16  2  0
 16 17  1  0
 17 18  2  0
 18 19  1  0
 19 20  2  0
 20 21  1  0
 21 22  1  0
  9  5  1  0
 22 13  1  0
 12  8  1  0
 20 15  1  0
  4 23  1  0
  4 24  1  0
  7 25  1  0
 10 26  1  0
 10 27  1  0
 11 28  1  0
 11 29  1  0
 12 30  1  0
 12 31  1  0
 14 32  1  0
 16 33  1  0
 17 34  1  0
 18 35  1  0
 19 36  1  0
 22 37  1  0
 22 38  1  0
M  END
>  <Energy>  (699) 
73.714940994765513

>  <compound_id>  (699) 
46647

>  <target_id>  (699) 
1

>  <reference_id>  (699) 
7

>  <inspiration_ids>  (699) 
[91, 7]

>  <energy_score>  (699) 
-16.344734825664204

>  <distance_score>  (699) 
12.269774286486713

>  <path>  (699) 
/opt/xchem-fragalysis-2/maxwin/BulkDock/SCRATCH/511023/C46647-P7/C46647-P7.minimised.mol

>  <scratch_subdir>  (699) 
/opt/xchem-fragalysis-2/maxwin/BulkDock/SCRATCH/511023/C46647-P7

>  <fragmenstein_runtime>  (699) 
10.153852939605713

>  <fragmenstein_outcome>  (699) 
too moved

>  <fragmenstein_mode>  (699) 
expansion

>  <fragmenstein_error>  (699) 


$$$$
C46648-P7
     RDKit          3D

 42 45  0  0  0  0  0  0  0  0999 V2000
   -1.0188    3.3843   14.0339 C   0  0  0  0  0  0  0  0  0  0  0  0
   -1.6160    2.0901   14.0978 O   0  0  0  0  0  0  0  0  0  0  0  0
   -2.1224    1.7317   15.3237 C   0  0  0  0  0  0  0  0  0  0  0  0
   -2.4443    0.3785   15.4462 C   0  0  0  0  0  0  0  0  0  0  0  0
   -2.9537   -0.1109   16.6483 C   0  0  0  0  0  0  0  0  0  0  0  0
   -3.0978    0.7483   17.7406 C   0  0  0  0  0  0  0  0  0  0  0  0
   -2.8351    2.1155   17.6329 C   0  0  0  0  0  0  0  0  0  0  0  0
   -2.3628    2.6046   16.4029 C   0  0  0  0  0  0  0  0  0  0  0  0
   -3.0465    2.9620   18.8370 C   0  0  0  0  0  0  0  0  0  0  0  0
   -3.0628    2.3765   20.0616 C   0  0  0  0  0  0  0  0  0  0  0  0
   -3.2855    3.1795   21.3371 C   0  0  0  0  0  0  0  0  0  0  0  0
   -3.8714    4.2540   21.3209 O   0  0  0  0  0  0  0  0  0  0  0  0
   -2.7089    2.6856   22.4826 O   0  0  0  0  0  0  0  0  0  0  0  0
   -3.5772    2.1230   23.5360 C   0  0  0  0  0  0  0  0  0  0  0  0
   -3.9557    2.8068   24.8701 C   0  0  0  0  0  0  0  0  0  0  0  0
   -3.6096    4.0749   25.1678 N   0  0  0  0  0  0  0  0  0  0  0  0
   -4.1238    4.3267   26.3990 N   0  0  0  0  0  0  0  0  0  0  0  0
   -4.7858    3.2696   26.8962 C   0  0  0  0  0  0  0  0  0  0  0  0
   -4.7029    2.2697   25.9737 C   0  0  0  0  0  0  0  0  0  0  0  0
   -5.4000    1.0665   26.4803 C   0  0  0  0  0  0  0  0  0  0  0  0
   -5.7293    1.4412   27.9696 C   0  0  0  0  0  0  0  0  0  0  0  0
   -5.5026    2.9768   28.1380 C   0  0  0  0  0  0  0  0  0  0  0  0
   -2.9280    0.8810   20.0922 C   0  0  0  0  0  0  0  0  0  0  0  0
   -3.5053    0.2121   18.9367 O   0  0  0  0  0  0  0  0  0  0  0  0
   -0.2536    3.5103   14.8074 H   0  0  0  0  0  0  0  0  0  0  0  0
   -1.7822    4.1663   14.0991 H   0  0  0  0  0  0  0  0  0  0  0  0
   -0.5249    3.4861   13.0645 H   0  0  0  0  0  0  0  0  0  0  0  0
   -2.3035   -0.2950   14.6043 H   0  0  0  0  0  0  0  0  0  0  0  0
   -3.1947   -1.1650   16.7503 H   0  0  0  0  0  0  0  0  0  0  0  0
   -2.1531    3.6663   16.3226 H   0  0  0  0  0  0  0  0  0  0  0  0
   -3.1571    4.0341   18.7120 H   0  0  0  0  0  0  0  0  0  0  0  0
   -3.0333    1.2219   23.8389 H   0  0  0  0  0  0  0  0  0  0  0  0
   -4.4911    1.8253   23.0351 H   0  0  0  0  0  0  0  0  0  0  0  0
   -3.9618    5.2421   26.8064 H   0  0  0  0  0  0  0  0  0  0  0  0
   -6.3210    0.8785   25.9213 H   0  0  0  0  0  0  0  0  0  0  0  0
   -4.7584    0.1826   26.4580 H   0  0  0  0  0  0  0  0  0  0  0  0
   -5.0448    0.9000   28.6356 H   0  0  0  0  0  0  0  0  0  0  0  0
   -6.7471    1.1458   28.2456 H   0  0  0  0  0  0  0  0  0  0  0  0
   -4.9173    3.1945   29.0352 H   0  0  0  0  0  0  0  0  0  0  0  0
   -6.4571    3.5086   28.1854 H   0  0  0  0  0  0  0  0  0  0  0  0
   -3.4275    0.4657   20.9693 H   0  0  0  0  0  0  0  0  0  0  0  0
   -1.8712    0.5945   20.1693 H   0  0  0  0  0  0  0  0  0  0  0  0
  1  2  1  0
  2  3  1  0
  3  4  2  0
  4  5  1  0
  5  6  2  0
  6  7  1  0
  7  8  2  0
  7  9  1  0
  9 10  2  0
 10 11  1  0
 11 12  2  0
 11 13  1  0
 13 14  1  0
 14 15  1  0
 15 16  2  0
 16 17  1  0
 17 18  1  0
 18 19  2  0
 19 20  1  0
 20 21  1  0
 21 22  1  0
 10 23  1  0
 23 24  1  0
  8  3  1  0
 19 15  1  0
 24  6  1  0
 22 18  1  0
  1 25  1  0
  1 26  1  0
  1 27  1  0
  4 28  1  0
  5 29  1  0
  8 30  1  0
  9 31  1  0
 14 32  1  0
 14 33  1  0
 17 34  1  0
 20 35  1  0
 20 36  1  0
 21 37  1  0
 21 38  1  0
 22 39  1  0
 22 40  1  0
 23 41  1  0
 23 42  1  0
M  END
>  <Energy>  (700) 
90.04439163349042

>  <compound_id>  (700) 
46648

>  <target_id>  (700) 
1

>  <reference_id>  (700) 
7

>  <inspiration_ids>  (700) 
[91, 7]

>  <energy_score>  (700) 
-0.8438195135176443

>  <distance_score>  (700) 
12.262283543023095

>  <path>  (700) 
/opt/xchem-fragalysis-2/maxwin/BulkDock/SCRATCH/511023/C46648-P7/C46648-P7.minimised.mol

>  <scratch_subdir>  (700) 
/opt/xchem-fragalysis-2/maxwin/BulkDock/SCRATCH/511023/C46648-P7

>  <fragmenstein_runtime>  (700) 
28.47991633415222

>  <fragmenstein_outcome>  (700) 
too moved

>  <fragmenstein_mode>  (700) 
expansion

>  <fragmenstein_error>  (700) 


$$$$
C46649-P7
     RDKit          3D

 38 41  0  0  0  0  0  0  0  0999 V2000
  -11.3103   -1.3468   21.5555 O   0  0  0  0  0  0  0  0  0  0  0  0
  -12.0149   -2.3219   21.7169 C   0  0  0  0  0  0  0  0  0  0  0  0
  -12.3660   -2.6102   23.0107 O   0  0  0  0  0  0  0  0  0  0  0  0
  -12.2316   -1.9212   24.6988 C   0  0  0  0  0  0  0  0  0  0  0  0
  -13.4590   -0.9158   26.0505 C   0  0  0  0  0  0  0  0  0  0  0  0
  -14.8077   -1.2714   26.4224 N   0  0  0  0  0  0  0  0  0  0  0  0
  -14.8613   -1.4427   27.7912 N   0  0  0  0  0  0  0  0  0  0  0  0
  -13.8922   -0.7263   28.4523 C   0  0  0  0  0  0  0  0  0  0  0  0
  -13.4764    0.0242   27.3447 C   0  0  0  0  0  0  0  0  0  0  0  0
  -14.6885    1.2283   27.7917 C   0  0  0  0  0  0  0  0  0  0  0  0
  -14.4615    1.3715   29.3095 C   0  0  0  0  0  0  0  0  0  0  0  0
  -14.2178   -0.0711   29.7540 C   0  0  0  0  0  0  0  0  0  0  0  0
  -12.5371   -3.0594   20.2598 C   0  0  0  0  0  0  0  0  0  0  0  0
  -13.5820   -3.7269   19.6527 C   0  0  0  0  0  0  0  0  0  0  0  0
  -13.7943   -3.6527   18.0956 C   0  0  0  0  0  0  0  0  0  0  0  0
  -14.8816   -4.0633   17.3267 C   0  0  0  0  0  0  0  0  0  0  0  0
  -14.9029   -3.8119   15.9209 C   0  0  0  0  0  0  0  0  0  0  0  0
  -16.1052   -4.4787   14.8874 Cl  0  0  0  0  0  0  0  0  0  0  0  0
  -13.9166   -3.0742   15.2745 C   0  0  0  0  0  0  0  0  0  0  0  0
  -12.7759   -2.7911   15.9685 C   0  0  0  0  0  0  0  0  0  0  0  0
  -12.7561   -3.1296   17.3203 C   0  0  0  0  0  0  0  0  0  0  0  0
  -11.5559   -3.0857   17.9082 O   0  0  0  0  0  0  0  0  0  0  0  0
  -11.6291   -2.5228   19.1963 C   0  0  0  0  0  0  0  0  0  0  0  0
  -11.2984   -1.2999   24.5606 H   0  0  0  0  0  0  0  0  0  0  0  0
  -11.8472   -2.8636   24.9844 H   0  0  0  0  0  0  0  0  0  0  0  0
  -15.6795   -1.8943   28.1890 H   0  0  0  0  0  0  0  0  0  0  0  0
  -14.7424    2.1905   27.2826 H   0  0  0  0  0  0  0  0  0  0  0  0
  -15.6871    0.8043   27.5983 H   0  0  0  0  0  0  0  0  0  0  0  0
  -15.3132    1.8293   29.8205 H   0  0  0  0  0  0  0  0  0  0  0  0
  -13.5716    1.9822   29.5025 H   0  0  0  0  0  0  0  0  0  0  0  0
  -13.3987   -0.1411   30.4711 H   0  0  0  0  0  0  0  0  0  0  0  0
  -15.1291   -0.4835   30.1964 H   0  0  0  0  0  0  0  0  0  0  0  0
  -14.3959   -4.1904   20.1888 H   0  0  0  0  0  0  0  0  0  0  0  0
  -15.7107   -4.5920   17.7879 H   0  0  0  0  0  0  0  0  0  0  0  0
  -14.0186   -2.8017   14.2313 H   0  0  0  0  0  0  0  0  0  0  0  0
  -11.9088   -2.3498   15.4880 H   0  0  0  0  0  0  0  0  0  0  0  0
  -10.6064   -2.4914   19.5710 H   0  0  0  0  0  0  0  0  0  0  0  0
  -12.0870   -1.5993   18.9142 H   0  0  0  0  0  0  0  0  0  0  0  0
  1  2  2  0
  2  3  1  0
  3  4  1  0
  4  5  1  0
  5  6  2  0
  6  7  1  0
  7  8  1  0
  8  9  2  0
  9 10  1  0
 10 11  1  0
 11 12  1  0
  2 13  1  0
 13 14  2  0
 14 15  1  0
 15 16  2  0
 16 17  1  0
 17 18  1  0
 17 19  2  0
 19 20  1  0
 20 21  2  0
 21 22  1  0
 22 23  1  0
  9  5  1  0
 23 13  1  0
 12  8  1  0
 21 15  1  0
  4 24  1  0
  4 25  1  0
  7 26  1  0
 10 27  1  0
 10 28  1  0
 11 29  1  0
 11 30  1  0
 12 31  1  0
 12 32  1  0
 14 33  1  0
 16 34  1  0
 19 35  1  0
 20 36  1  0
 23 37  1  0
 23 38  1  0
M  END
>  <Energy>  (701) 
425.18741039512003

>  <compound_id>  (701) 
46649

>  <target_id>  (701) 
1

>  <reference_id>  (701) 
7

>  <inspiration_ids>  (701) 
[91, 7]

>  <energy_score>  (701) 
326.5187530860562

>  <distance_score>  (701) 
11.831771463709511

>  <path>  (701) 
/opt/xchem-fragalysis-2/maxwin/BulkDock/SCRATCH/511023/C46649-P7/C46649-P7.minimised.mol

>  <scratch_subdir>  (701) 
/opt/xchem-fragalysis-2/maxwin/BulkDock/SCRATCH/511023/C46649-P7

>  <fragmenstein_runtime>  (701) 
10.119480848312378

>  <fragmenstein_outcome>  (701) 
too moved

>  <fragmenstein_mode>  (701) 
expansion

>  <fragmenstein_error>  (701) 


$$$$
C9281-P7
     RDKit          3D

 32 34  0  0  0  0  0  0  0  0999 V2000
  -14.9112   -1.9626   15.4825 O   0  0  0  0  0  0  0  0  0  0  0  0
  -13.7386   -1.8245   15.7220 C   0  0  0  0  0  0  0  0  0  0  0  0
  -12.9000   -2.3979   16.8100 N   0  0  0  0  0  0  0  0  0  0  0  0
  -13.2711   -3.5228   18.0127 S   0  0  0  0  0  0  0  0  0  0  0  0
  -12.4418   -4.6789   17.7275 O   0  0  0  0  0  0  0  0  0  0  0  0
  -14.7146   -3.6601   18.0466 O   0  0  0  0  0  0  0  0  0  0  0  0
  -12.8891   -3.1850   19.7515 C   0  0  0  0  0  0  0  0  0  0  0  0
  -13.7218   -3.5827   20.8485 C   0  0  0  0  0  0  0  0  0  0  0  0
  -13.0249   -3.2581   21.9905 C   0  0  0  0  0  0  0  0  0  0  0  0
  -11.8813   -2.6458   21.5625 N   0  0  0  0  0  0  0  0  0  0  0  0
  -11.7388   -2.6659   20.2147 N   0  0  0  0  0  0  0  0  0  0  0  0
  -13.0487   -0.9560   14.6445 C   0  0  0  0  0  0  0  0  0  0  0  0
  -12.1008   -1.3386   13.7628 C   0  0  0  0  0  0  0  0  0  0  0  0
  -11.9084   -0.5265   12.5170 C   0  0  0  0  0  0  0  0  0  0  0  0
  -11.2100   -0.9547   11.3603 C   0  0  0  0  0  0  0  0  0  0  0  0
  -10.9176   -0.0748   10.2967 C   0  0  0  0  0  0  0  0  0  0  0  0
   -9.8370   -0.6002    8.8208 Br  0  0  0  0  0  0  0  0  0  0  0  0
  -11.3415    1.2459   10.3616 C   0  0  0  0  0  0  0  0  0  0  0  0
  -12.0596    1.6789   11.4785 C   0  0  0  0  0  0  0  0  0  0  0  0
  -12.3518    0.7968   12.5289 C   0  0  0  0  0  0  0  0  0  0  0  0
  -13.0239    1.3074   13.6087 O   0  0  0  0  0  0  0  0  0  0  0  0
  -13.8034    0.3188   14.3218 C   0  0  0  0  0  0  0  0  0  0  0  0
  -11.9304   -2.1345   16.6582 H   0  0  0  0  0  0  0  0  0  0  0  0
  -14.6824   -4.0752   20.7823 H   0  0  0  0  0  0  0  0  0  0  0  0
  -13.2267   -3.3828   23.0431 H   0  0  0  0  0  0  0  0  0  0  0  0
  -11.1419   -2.2184   22.1202 H   0  0  0  0  0  0  0  0  0  0  0  0
  -11.5401   -2.2530   13.8778 H   0  0  0  0  0  0  0  0  0  0  0  0
  -10.7908   -1.9492   11.3209 H   0  0  0  0  0  0  0  0  0  0  0  0
  -11.1082    1.9493    9.5671 H   0  0  0  0  0  0  0  0  0  0  0  0
  -12.3910    2.7127   11.5391 H   0  0  0  0  0  0  0  0  0  0  0  0
  -14.1295    0.8044   15.2470 H   0  0  0  0  0  0  0  0  0  0  0  0
  -14.7062    0.0996   13.7370 H   0  0  0  0  0  0  0  0  0  0  0  0
  1  2  2  0
  2  3  1  0
  3  4  1  0
  4  5  2  0
  4  6  2  0
  4  7  1  0
  7  8  1  0
  8  9  2  0
  9 10  1  0
 10 11  1  0
  2 12  1  0
 12 13  2  0
 13 14  1  0
 14 15  2  0
 15 16  1  0
 16 17  1  0
 16 18  2  0
 18 19  1  0
 19 20  2  0
 20 21  1  0
 21 22  1  0
 11  7  2  0
 22 12  1  0
 20 14  1  0
  3 23  1  0
  8 24  1  0
  9 25  1  0
 10 26  1  0
 13 27  1  0
 15 28  1  0
 18 29  1  0
 19 30  1  0
 22 31  1  0
 22 32  1  0
M  END
>  <Energy>  (702) 
16.662991446329851

>  <compound_id>  (702) 
9281

>  <target_id>  (702) 
1

>  <reference_id>  (702) 
7

>  <inspiration_ids>  (702) 
[91, 7]

>  <energy_score>  (702) 
-8.840505713133922

>  <distance_score>  (702) 
11.724884000950258

>  <path>  (702) 
/opt/xchem-fragalysis-2/maxwin/BulkDock/SCRATCH/511023/C9281-P7/C9281-P7.minimised.mol

>  <scratch_subdir>  (702) 
/opt/xchem-fragalysis-2/maxwin/BulkDock/SCRATCH/511023/C9281-P7

>  <fragmenstein_runtime>  (702) 
18.409217357635498

>  <fragmenstein_outcome>  (702) 
too moved

>  <fragmenstein_mode>  (702) 
expansion

>  <fragmenstein_error>  (702) 


$$$$
C9292-P7
     RDKit          3D

 38 40  0  0  0  0  0  0  0  0999 V2000
   -9.7632   -3.7409   15.9277 O   0  0  0  0  0  0  0  0  0  0  0  0
   -9.0914   -2.6917   16.1712 C   0  0  0  0  0  0  0  0  0  0  0  0
   -9.6827   -1.9203   17.8877 O   0  0  0  0  0  0  0  0  0  0  0  0
  -10.3989   -2.3575   19.7798 C   0  0  0  0  0  0  0  0  0  0  0  0
  -11.0095   -1.8726   21.8171 C   0  0  0  0  0  0  0  0  0  0  0  0
  -11.3722   -1.9443   23.8393 N   0  0  0  0  0  0  0  0  0  0  0  0
  -11.8439   -0.5405   25.1548 C   0  0  0  0  0  0  0  0  0  0  0  0
  -11.8092    0.4478   24.6770 O   0  0  0  0  0  0  0  0  0  0  0  0
  -12.5476   -0.3228   27.0133 C   0  0  0  0  0  0  0  0  0  0  0  0
  -13.4522    0.5177   27.9017 C   0  0  0  0  0  0  0  0  0  0  0  0
  -14.1688   -0.1427   29.4023 C   0  0  0  0  0  0  0  0  0  0  0  0
  -13.6852   -1.3219   29.2764 N   0  0  0  0  0  0  0  0  0  0  0  0
  -12.5416   -0.9267   28.5426 N   0  0  0  0  0  0  0  0  0  0  0  0
   -7.8093   -2.2549   14.4793 C   0  0  0  0  0  0  0  0  0  0  0  0
   -8.1553   -1.5664   12.8508 C   0  0  0  0  0  0  0  0  0  0  0  0
   -7.1970   -0.7617   11.0813 C   0  0  0  0  0  0  0  0  0  0  0  0
   -6.9017   -1.2856    9.4873 C   0  0  0  0  0  0  0  0  0  0  0  0
   -6.4371   -0.6756    8.3269 C   0  0  0  0  0  0  0  0  0  0  0  0
   -5.9653   -1.5369    6.9273 Cl  0  0  0  0  0  0  0  0  0  0  0  0
   -6.7506    0.6121    8.3012 C   0  0  0  0  0  0  0  0  0  0  0  0
   -7.4240    1.0101    9.4563 C   0  0  0  0  0  0  0  0  0  0  0  0
   -7.5098    0.4943   10.8655 C   0  0  0  0  0  0  0  0  0  0  0  0
   -6.4684   -0.1911   12.1337 O   0  0  0  0  0  0  0  0  0  0  0  0
   -7.9152   -1.2284   12.7244 C   0  0  0  0  0  0  0  0  0  0  0  0
   -9.4209   -2.6978   20.0051 H   0  0  0  0  0  0  0  0  0  0  0  0
  -11.1716   -3.0571   19.4553 H   0  0  0  0  0  0  0  0  0  0  0  0
  -11.2817   -0.8615   21.7762 H   0  0  0  0  0  0  0  0  0  0  0  0
  -10.1942   -2.4552   22.2158 H   0  0  0  0  0  0  0  0  0  0  0  0
  -11.4945   -2.8414   24.2769 H   0  0  0  0  0  0  0  0  0  0  0  0
  -14.1538    1.3422   27.6861 H   0  0  0  0  0  0  0  0  0  0  0  0
  -15.0654    0.1905   29.9240 H   0  0  0  0  0  0  0  0  0  0  0  0
  -11.8070   -1.4499   28.9894 H   0  0  0  0  0  0  0  0  0  0  0  0
   -9.6326   -1.7137   12.6625 H   0  0  0  0  0  0  0  0  0  0  0  0
   -7.3851   -2.2141    9.1508 H   0  0  0  0  0  0  0  0  0  0  0  0
   -6.7364    1.2112    7.4013 H   0  0  0  0  0  0  0  0  0  0  0  0
   -8.1073    1.8578    9.2710 H   0  0  0  0  0  0  0  0  0  0  0  0
   -8.8812   -0.6031   11.6818 H   0  0  0  0  0  0  0  0  0  0  0  0
   -8.9984   -1.2546   11.5283 H   0  0  0  0  0  0  0  0  0  0  0  0
  1  2  2  0
  2  3  1  0
  3  4  1  0
  4  5  1  0
  5  6  1  0
  6  7  1  0
  7  8  2  0
  7  9  1  0
  9 10  2  0
 10 11  1  0
 11 12  2  0
 12 13  1  0
  2 14  1  0
 14 15  2  0
 15 16  1  0
 16 17  2  0
 17 18  1  0
 18 19  1  0
 18 20  2  0
 20 21  1  0
 21 22  2  0
 22 23  1  0
 23 24  1  0
 13  9  1  0
 24 14  1  0
 22 16  1  0
  4 25  1  0
  4 26  1  0
  5 27  1  0
  5 28  1  0
  6 29  1  0
 10 30  1  0
 11 31  1  0
 13 32  1  0
 15 33  1  0
 17 34  1  0
 20 35  1  0
 21 36  1  0
 24 37  1  0
 24 38  1  0
M  END
>  <Energy>  (703) 
2612.1549103656598

>  <compound_id>  (703) 
9292

>  <target_id>  (703) 
1

>  <reference_id>  (703) 
7

>  <inspiration_ids>  (703) 
[91, 7]

>  <energy_score>  (703) 
2607.937477948876

>  <distance_score>  (703) 
6.185948723313856

>  <path>  (703) 
/opt/xchem-fragalysis-2/maxwin/BulkDock/SCRATCH/511023/C9292-P7/C9292-P7.minimised.mol

>  <scratch_subdir>  (703) 
/opt/xchem-fragalysis-2/maxwin/BulkDock/SCRATCH/511023/C9292-P7

>  <fragmenstein_runtime>  (703) 
19.339581966400146

>  <fragmenstein_outcome>  (703) 
too moved

>  <fragmenstein_mode>  (703) 
expansion

>  <fragmenstein_error>  (703) 


$$$$
C9284-P7
     RDKit          3D

 41 44  0  0  0  0  0  0  0  0999 V2000
   -9.9036   -0.0030   22.8560 O   0  0  0  0  0  0  0  0  0  0  0  0
  -10.7578   -0.8699   22.7722 C   0  0  0  0  0  0  0  0  0  0  0  0
  -11.6540   -1.6496   21.3004 C   0  0  0  0  0  0  0  0  0  0  0  0
  -11.7892   -2.3145   19.5210 N   0  0  0  0  0  0  0  0  0  0  0  0
  -11.7923   -1.6452   17.7320 C   0  0  0  0  0  0  0  0  0  0  0  0
  -12.5817   -0.8216   16.0795 C   0  0  0  0  0  0  0  0  0  0  0  0
  -12.1690   -0.9266   14.8176 C   0  0  0  0  0  0  0  0  0  0  0  0
  -12.3966   -0.1162   13.5394 C   0  0  0  0  0  0  0  0  0  0  0  0
  -12.0137   -0.5136   12.2385 C   0  0  0  0  0  0  0  0  0  0  0  0
  -11.9723    0.3851   11.1670 C   0  0  0  0  0  0  0  0  0  0  0  0
  -12.3044    1.7143   11.3895 C   0  0  0  0  0  0  0  0  0  0  0  0
  -12.7232    2.1160   12.6617 C   0  0  0  0  0  0  0  0  0  0  0  0
  -12.7941    1.1902   13.7064 C   0  0  0  0  0  0  0  0  0  0  0  0
  -13.2496    1.5708   14.9311 O   0  0  0  0  0  0  0  0  0  0  0  0
  -13.8137    0.4175   15.6466 C   0  0  0  0  0  0  0  0  0  0  0  0
  -11.7476   -2.8562   22.1627 C   0  0  0  0  0  0  0  0  0  0  0  0
  -11.3060   -2.6044   23.6923 C   0  0  0  0  0  0  0  0  0  0  0  0
  -10.9877   -1.3028   24.1399 N   0  0  0  0  0  0  0  0  0  0  0  0
  -11.5148   -0.2058   25.4560 C   0  0  0  0  0  0  0  0  0  0  0  0
  -10.6803   -0.0440   26.8921 C   0  0  0  0  0  0  0  0  0  0  0  0
  -11.4401    0.3792   27.9603 C   0  0  0  0  0  0  0  0  0  0  0  0
  -12.6385    0.1694   27.4528 N   0  0  0  0  0  0  0  0  0  0  0  0
  -12.7699   -0.0818   26.0843 N   0  0  0  0  0  0  0  0  0  0  0  0
  -12.5968   -1.1695   21.3790 H   0  0  0  0  0  0  0  0  0  0  0  0
  -10.9399   -2.8852   19.4969 H   0  0  0  0  0  0  0  0  0  0  0  0
  -12.5405   -1.1305   18.2594 H   0  0  0  0  0  0  0  0  0  0  0  0
  -10.7379   -1.3802   17.6523 H   0  0  0  0  0  0  0  0  0  0  0  0
  -11.7368   -1.9041   14.7438 H   0  0  0  0  0  0  0  0  0  0  0  0
  -11.6177   -1.5074   12.0665 H   0  0  0  0  0  0  0  0  0  0  0  0
  -11.6305    0.0531   10.1902 H   0  0  0  0  0  0  0  0  0  0  0  0
  -12.2542    2.4359   10.5790 H   0  0  0  0  0  0  0  0  0  0  0  0
  -13.0181    3.1464   12.8396 H   0  0  0  0  0  0  0  0  0  0  0  0
  -14.4552    0.8204   16.4390 H   0  0  0  0  0  0  0  0  0  0  0  0
  -14.5732    0.0402   14.9578 H   0  0  0  0  0  0  0  0  0  0  0  0
  -12.7426   -3.2276   22.0245 H   0  0  0  0  0  0  0  0  0  0  0  0
  -11.1491   -3.6054   21.6924 H   0  0  0  0  0  0  0  0  0  0  0  0
  -10.2863   -2.9989   23.7307 H   0  0  0  0  0  0  0  0  0  0  0  0
  -11.8470   -3.1582   24.4035 H   0  0  0  0  0  0  0  0  0  0  0  0
   -9.6311   -0.3320   27.0697 H   0  0  0  0  0  0  0  0  0  0  0  0
  -11.2362    0.5803   28.9894 H   0  0  0  0  0  0  0  0  0  0  0  0
  -13.4675    0.4452   27.9438 H   0  0  0  0  0  0  0  0  0  0  0  0
  1  2  2  0
  2  3  1  0
  3  4  1  0
  4  5  1  0
  5  6  1  0
  6  7  2  0
  7  8  1  0
  8  9  2  0
  9 10  1  0
 10 11  2  0
 11 12  1  0
 12 13  2  0
 13 14  1  0
 14 15  1  0
  3 16  1  0
 16 17  1  0
 17 18  1  0
 18 19  1  0
 19 20  1  0
 20 21  2  0
 21 22  1  0
 22 23  1  0
 18  2  1  0
 23 19  2  0
 15  6  1  0
 13  8  1  0
  3 24  1  0
  4 25  1  0
  5 26  1  0
  5 27  1  0
  7 28  1  0
  9 29  1  0
 10 30  1  0
 11 31  1  0
 12 32  1  0
 15 33  1  0
 15 34  1  0
 16 35  1  0
 16 36  1  0
 17 37  1  0
 17 38  1  0
 20 39  1  0
 21 40  1  0
 22 41  1  0
M  END
>  <Energy>  (704) 
623.63533518682698

>  <compound_id>  (704) 
9284

>  <target_id>  (704) 
1

>  <reference_id>  (704) 
7

>  <inspiration_ids>  (704) 
[91, 7]

>  <energy_score>  (704) 
534.4895049435756

>  <distance_score>  (704) 
9.58926480868813

>  <path>  (704) 
/opt/xchem-fragalysis-2/maxwin/BulkDock/SCRATCH/511023/C9284-P7/C9284-P7.minimised.mol

>  <scratch_subdir>  (704) 
/opt/xchem-fragalysis-2/maxwin/BulkDock/SCRATCH/511023/C9284-P7

>  <fragmenstein_runtime>  (704) 
12.820009231567383

>  <fragmenstein_outcome>  (704) 
too moved

>  <fragmenstein_mode>  (704) 
expansion

>  <fragmenstein_error>  (704) 


$$$$
C9285-P7
     RDKit          3D

 33 35  0  0  0  0  0  0  0  0999 V2000
   -9.0946    0.3666    8.5969 C   0  0  0  0  0  0  0  0  0  0  0  0
  -10.4615    0.2672    8.9810 O   0  0  0  0  0  0  0  0  0  0  0  0
  -10.8215    1.0473   10.0421 C   0  0  0  0  0  0  0  0  0  0  0  0
  -10.2832    2.2949   10.3376 C   0  0  0  0  0  0  0  0  0  0  0  0
  -10.7476    3.0132   11.4528 C   0  0  0  0  0  0  0  0  0  0  0  0
  -11.7609    2.5000   12.2783 C   0  0  0  0  0  0  0  0  0  0  0  0
  -12.3061    1.2617   11.9623 C   0  0  0  0  0  0  0  0  0  0  0  0
  -11.8463    0.5452   10.8463 C   0  0  0  0  0  0  0  0  0  0  0  0
  -13.2986    0.6825   12.6992 O   0  0  0  0  0  0  0  0  0  0  0  0
  -13.7814    1.3518   13.8866 C   0  0  0  0  0  0  0  0  0  0  0  0
  -13.2152    2.6973   14.2491 C   0  0  0  0  0  0  0  0  0  0  0  0
  -13.5978    3.4685   15.5619 C   0  0  0  0  0  0  0  0  0  0  0  0
  -12.9956    4.4955   15.7313 O   0  0  0  0  0  0  0  0  0  0  0  0
  -14.5508    2.7747   16.4177 N   0  0  0  0  0  0  0  0  0  0  0  0
  -14.9739    3.0420   17.7137 C   0  0  0  0  0  0  0  0  0  0  0  0
  -14.5787    4.1083   18.5620 C   0  0  0  0  0  0  0  0  0  0  0  0
  -15.1429    3.8648   19.7942 C   0  0  0  0  0  0  0  0  0  0  0  0
  -15.8733    2.7314   19.6341 N   0  0  0  0  0  0  0  0  0  0  0  0
  -15.7638    2.1906   18.3928 N   0  0  0  0  0  0  0  0  0  0  0  0
  -12.2488    3.2229   13.4612 C   0  0  0  0  0  0  0  0  0  0  0  0
   -8.9181    1.2848    8.0281 H   0  0  0  0  0  0  0  0  0  0  0  0
   -8.8693   -0.4803    7.9415 H   0  0  0  0  0  0  0  0  0  0  0  0
   -8.4245    0.3069    9.4615 H   0  0  0  0  0  0  0  0  0  0  0  0
   -9.5161    2.7418    9.7144 H   0  0  0  0  0  0  0  0  0  0  0  0
  -10.3060    3.9835   11.6695 H   0  0  0  0  0  0  0  0  0  0  0  0
  -12.2782   -0.4242   10.6132 H   0  0  0  0  0  0  0  0  0  0  0  0
  -13.6043    0.6512   14.7099 H   0  0  0  0  0  0  0  0  0  0  0  0
  -14.8661    1.4450   13.7608 H   0  0  0  0  0  0  0  0  0  0  0  0
  -14.7964    1.8990   15.9938 H   0  0  0  0  0  0  0  0  0  0  0  0
  -13.9277    4.9293   18.3006 H   0  0  0  0  0  0  0  0  0  0  0  0
  -15.1005    4.3954   20.7345 H   0  0  0  0  0  0  0  0  0  0  0  0
  -16.4585    2.2698   20.3228 H   0  0  0  0  0  0  0  0  0  0  0  0
  -11.7786    4.1744   13.6919 H   0  0  0  0  0  0  0  0  0  0  0  0
  1  2  1  0
  2  3  1  0
  3  4  2  0
  4  5  1  0
  5  6  2  0
  6  7  1  0
  7  8  2  0
  7  9  1  0
  9 10  1  0
 10 11  1  0
 11 12  1  0
 12 13  2  0
 12 14  1  0
 14 15  1  0
 15 16  1  0
 16 17  2  0
 17 18  1  0
 18 19  1  0
 11 20  2  0
  8  3  1  0
 19 15  2  0
 20  6  1  0
  1 21  1  0
  1 22  1  0
  1 23  1  0
  4 24  1  0
  5 25  1  0
  8 26  1  0
 10 27  1  0
 10 28  1  0
 14 29  1  0
 16 30  1  0
 17 31  1  0
 18 32  1  0
 20 33  1  0
M  END
>  <Energy>  (705) 
-2.7722168987916871

>  <compound_id>  (705) 
9285

>  <target_id>  (705) 
1

>  <reference_id>  (705) 
7

>  <inspiration_ids>  (705) 
[91, 7]

>  <energy_score>  (705) 
-22.714657474259752

>  <distance_score>  (705) 
13.174054282483626

>  <path>  (705) 
/opt/xchem-fragalysis-2/maxwin/BulkDock/SCRATCH/511023/C9285-P7/C9285-P7.minimised.mol

>  <scratch_subdir>  (705) 
/opt/xchem-fragalysis-2/maxwin/BulkDock/SCRATCH/511023/C9285-P7

>  <fragmenstein_runtime>  (705) 
15.266504526138306

>  <fragmenstein_outcome>  (705) 
too moved

>  <fragmenstein_mode>  (705) 
expansion

>  <fragmenstein_error>  (705) 


$$$$
C46648-P7
     RDKit          3D

 42 45  0  0  0  0  0  0  0  0999 V2000
   -1.0188    3.3843   14.0339 C   0  0  0  0  0  0  0  0  0  0  0  0
   -1.6160    2.0901   14.0978 O   0  0  0  0  0  0  0  0  0  0  0  0
   -2.1224    1.7317   15.3237 C   0  0  0  0  0  0  0  0  0  0  0  0
   -2.4443    0.3785   15.4462 C   0  0  0  0  0  0  0  0  0  0  0  0
   -2.9537   -0.1109   16.6483 C   0  0  0  0  0  0  0  0  0  0  0  0
   -3.0978    0.7483   17.7406 C   0  0  0  0  0  0  0  0  0  0  0  0
   -2.8351    2.1155   17.6329 C   0  0  0  0  0  0  0  0  0  0  0  0
   -2.3628    2.6046   16.4029 C   0  0  0  0  0  0  0  0  0  0  0  0
   -3.0465    2.9620   18.8370 C   0  0  0  0  0  0  0  0  0  0  0  0
   -3.0628    2.3765   20.0616 C   0  0  0  0  0  0  0  0  0  0  0  0
   -3.2855    3.1795   21.3371 C   0  0  0  0  0  0  0  0  0  0  0  0
   -3.8714    4.2540   21.3209 O   0  0  0  0  0  0  0  0  0  0  0  0
   -2.7089    2.6856   22.4826 O   0  0  0  0  0  0  0  0  0  0  0  0
   -3.5772    2.1230   23.5360 C   0  0  0  0  0  0  0  0  0  0  0  0
   -3.9557    2.8068   24.8701 C   0  0  0  0  0  0  0  0  0  0  0  0
   -3.6096    4.0749   25.1678 N   0  0  0  0  0  0  0  0  0  0  0  0
   -4.1238    4.3267   26.3990 N   0  0  0  0  0  0  0  0  0  0  0  0
   -4.7858    3.2696   26.8962 C   0  0  0  0  0  0  0  0  0  0  0  0
   -4.7029    2.2697   25.9737 C   0  0  0  0  0  0  0  0  0  0  0  0
   -5.4000    1.0665   26.4803 C   0  0  0  0  0  0  0  0  0  0  0  0
   -5.7293    1.4412   27.9696 C   0  0  0  0  0  0  0  0  0  0  0  0
   -5.5026    2.9768   28.1380 C   0  0  0  0  0  0  0  0  0  0  0  0
   -2.9280    0.8810   20.0922 C   0  0  0  0  0  0  0  0  0  0  0  0
   -3.5053    0.2121   18.9367 O   0  0  0  0  0  0  0  0  0  0  0  0
   -0.2536    3.5103   14.8074 H   0  0  0  0  0  0  0  0  0  0  0  0
   -1.7822    4.1663   14.0991 H   0  0  0  0  0  0  0  0  0  0  0  0
   -0.5249    3.4861   13.0645 H   0  0  0  0  0  0  0  0  0  0  0  0
   -2.3035   -0.2950   14.6043 H   0  0  0  0  0  0  0  0  0  0  0  0
   -3.1947   -1.1650   16.7503 H   0  0  0  0  0  0  0  0  0  0  0  0
   -2.1531    3.6663   16.3226 H   0  0  0  0  0  0  0  0  0  0  0  0
   -3.1571    4.0341   18.7120 H   0  0  0  0  0  0  0  0  0  0  0  0
   -3.0333    1.2219   23.8389 H   0  0  0  0  0  0  0  0  0  0  0  0
   -4.4911    1.8253   23.0351 H   0  0  0  0  0  0  0  0  0  0  0  0
   -3.9618    5.2421   26.8064 H   0  0  0  0  0  0  0  0  0  0  0  0
   -6.3210    0.8785   25.9213 H   0  0  0  0  0  0  0  0  0  0  0  0
   -4.7584    0.1826   26.4580 H   0  0  0  0  0  0  0  0  0  0  0  0
   -5.0448    0.9000   28.6356 H   0  0  0  0  0  0  0  0  0  0  0  0
   -6.7471    1.1458   28.2456 H   0  0  0  0  0  0  0  0  0  0  0  0
   -4.9173    3.1945   29.0352 H   0  0  0  0  0  0  0  0  0  0  0  0
   -6.4571    3.5086   28.1854 H   0  0  0  0  0  0  0  0  0  0  0  0
   -3.4275    0.4657   20.9693 H   0  0  0  0  0  0  0  0  0  0  0  0
   -1.8712    0.5945   20.1693 H   0  0  0  0  0  0  0  0  0  0  0  0
  1  2  1  0
  2  3  1  0
  3  4  2  0
  4  5  1  0
  5  6  2  0
  6  7  1  0
  7  8  2  0
  7  9  1  0
  9 10  2  0
 10 11  1  0
 11 12  2  0
 11 13  1  0
 13 14  1  0
 14 15  1  0
 15 16  2  0
 16 17  1  0
 17 18  1  0
 18 19  2  0
 19 20  1  0
 20 21  1  0
 21 22  1  0
 10 23  1  0
 23 24  1  0
  8  3  1  0
 19 15  1  0
 24  6  1  0
 22 18  1  0
  1 25  1  0
  1 26  1  0
  1 27  1  0
  4 28  1  0
  5 29  1  0
  8 30  1  0
  9 31  1  0
 14 32  1  0
 14 33  1  0
 17 34  1  0
 20 35  1  0
 20 36  1  0
 21 37  1  0
 21 38  1  0
 22 39  1  0
 22 40  1  0
 23 41  1  0
 23 42  1  0
M  END
>  <Energy>  (706) 
90.04439163349042

>  <compound_id>  (706) 
46648

>  <target_id>  (706) 
1

>  <reference_id>  (706) 
7

>  <inspiration_ids>  (706) 
[91, 7]

>  <energy_score>  (706) 
-0.8438195135176443

>  <distance_score>  (706) 
12.262283543023095

>  <path>  (706) 
/opt/xchem-fragalysis-2/maxwin/BulkDock/SCRATCH/511023/C46648-P7/C46648-P7.minimised.mol

>  <scratch_subdir>  (706) 
/opt/xchem-fragalysis-2/maxwin/BulkDock/SCRATCH/511023/C46648-P7

>  <fragmenstein_runtime>  (706) 
30.972195386886597

>  <fragmenstein_outcome>  (706) 
too moved

>  <fragmenstein_mode>  (706) 
expansion

>  <fragmenstein_error>  (706) 


$$$$
C9286-P7
     RDKit          3D

 33 35  0  0  0  0  0  0  0  0999 V2000
   -9.8076   -1.6778    7.3594 C   0  0  0  0  0  0  0  0  0  0  0  0
   -9.1804   -1.3175    8.5884 O   0  0  0  0  0  0  0  0  0  0  0  0
   -9.7582   -0.1859    9.1050 C   0  0  0  0  0  0  0  0  0  0  0  0
   -9.2964    1.0456    8.6628 C   0  0  0  0  0  0  0  0  0  0  0  0
   -9.8284    2.1971    9.2269 C   0  0  0  0  0  0  0  0  0  0  0  0
  -10.7834    2.1126   10.2529 C   0  0  0  0  0  0  0  0  0  0  0  0
  -11.2594    0.8880   10.7271 C   0  0  0  0  0  0  0  0  0  0  0  0
  -10.7254   -0.2718   10.1301 C   0  0  0  0  0  0  0  0  0  0  0  0
  -12.2392    0.8680   11.8604 C   0  0  0  0  0  0  0  0  0  0  0  0
  -12.5112    2.0169   12.5209 C   0  0  0  0  0  0  0  0  0  0  0  0
  -13.3996    2.3486   13.7870 C   0  0  0  0  0  0  0  0  0  0  0  0
  -13.4221    3.5201   14.0504 O   0  0  0  0  0  0  0  0  0  0  0  0
  -14.0327    1.2303   14.4326 N   0  0  0  0  0  0  0  0  0  0  0  0
  -14.7818    1.1564   15.6019 C   0  0  0  0  0  0  0  0  0  0  0  0
  -15.0874    2.2198   16.5134 C   0  0  0  0  0  0  0  0  0  0  0  0
  -15.7620    1.6522   17.5733 C   0  0  0  0  0  0  0  0  0  0  0  0
  -15.8774    0.3369   17.2512 N   0  0  0  0  0  0  0  0  0  0  0  0
  -15.2479   -0.0016   16.0990 N   0  0  0  0  0  0  0  0  0  0  0  0
  -11.8266    3.2998   12.0323 C   0  0  0  0  0  0  0  0  0  0  0  0
  -11.2263    3.3070   10.7302 O   0  0  0  0  0  0  0  0  0  0  0  0
   -9.4678   -2.6824    7.0899 H   0  0  0  0  0  0  0  0  0  0  0  0
   -9.5074   -0.9924    6.5597 H   0  0  0  0  0  0  0  0  0  0  0  0
  -10.8999   -1.6990    7.4460 H   0  0  0  0  0  0  0  0  0  0  0  0
   -8.5284    1.1099    7.8998 H   0  0  0  0  0  0  0  0  0  0  0  0
   -9.4843    3.1729    8.8942 H   0  0  0  0  0  0  0  0  0  0  0  0
  -11.0185   -1.2527   10.4884 H   0  0  0  0  0  0  0  0  0  0  0  0
  -12.6505   -0.0935   12.1393 H   0  0  0  0  0  0  0  0  0  0  0  0
  -13.8620    0.3986   13.8909 H   0  0  0  0  0  0  0  0  0  0  0  0
  -14.8146    3.2612   16.4059 H   0  0  0  0  0  0  0  0  0  0  0  0
  -16.1766    2.0683   18.4807 H   0  0  0  0  0  0  0  0  0  0  0  0
  -16.3664   -0.3923   17.7581 H   0  0  0  0  0  0  0  0  0  0  0  0
  -11.0508    3.5904   12.7519 H   0  0  0  0  0  0  0  0  0  0  0  0
  -12.5580    4.1145   11.9864 H   0  0  0  0  0  0  0  0  0  0  0  0
  1  2  1  0
  2  3  1  0
  3  4  2  0
  4  5  1  0
  5  6  2  0
  6  7  1  0
  7  8  2  0
  7  9  1  0
  9 10  2  0
 10 11  1  0
 11 12  2  0
 11 13  1  0
 13 14  1  0
 14 15  1  0
 15 16  2  0
 16 17  1  0
 17 18  1  0
 10 19  1  0
 19 20  1  0
  8  3  1  0
 18 14  2  0
 20  6  1  0
  1 21  1  0
  1 22  1  0
  1 23  1  0
  4 24  1  0
  5 25  1  0
  8 26  1  0
  9 27  1  0
 13 28  1  0
 15 29  1  0
 16 30  1  0
 17 31  1  0
 19 32  1  0
 19 33  1  0
M  END
>  <Energy>  (707) 
-1.0596831193695069

>  <compound_id>  (707) 
9286

>  <target_id>  (707) 
1

>  <reference_id>  (707) 
7

>  <inspiration_ids>  (707) 
[91, 7]

>  <energy_score>  (707) 
-34.19640071473839

>  <distance_score>  (707) 
13.425107308873706

>  <path>  (707) 
/opt/xchem-fragalysis-2/maxwin/BulkDock/SCRATCH/511023/C9286-P7/C9286-P7.minimised.mol

>  <scratch_subdir>  (707) 
/opt/xchem-fragalysis-2/maxwin/BulkDock/SCRATCH/511023/C9286-P7

>  <fragmenstein_runtime>  (707) 
10.269312143325806

>  <fragmenstein_outcome>  (707) 
too moved

>  <fragmenstein_mode>  (707) 
expansion

>  <fragmenstein_error>  (707) 


$$$$
C9282-P7
     RDKit          3D

 36 38  0  0  0  0  0  0  0  0999 V2000
  -11.6088    5.6743   15.1074 C   0  0  0  0  0  0  0  0  0  0  0  0
  -11.8551    4.2690   15.0203 O   0  0  0  0  0  0  0  0  0  0  0  0
  -12.9172    3.9181   15.8340 C   0  0  0  0  0  0  0  0  0  0  0  0
  -14.0051    3.3434   15.1990 C   0  0  0  0  0  0  0  0  0  0  0  0
  -15.0608    2.8754   15.9812 C   0  0  0  0  0  0  0  0  0  0  0  0
  -15.0306    2.9591   17.3966 C   0  0  0  0  0  0  0  0  0  0  0  0
  -13.9267    3.4803   18.0937 C   0  0  0  0  0  0  0  0  0  0  0  0
  -12.8738    3.9522   17.2625 C   0  0  0  0  0  0  0  0  0  0  0  0
  -11.6804    4.3255   17.7825 O   0  0  0  0  0  0  0  0  0  0  0  0
  -11.2715    3.5191   18.9411 C   0  0  0  0  0  0  0  0  0  0  0  0
  -12.6712    3.0704   20.3155 C   0  0  0  0  0  0  0  0  0  0  0  0
  -12.6519    2.6132   22.1709 C   0  0  0  0  0  0  0  0  0  0  0  0
  -12.9708    3.6117   22.8552 O   0  0  0  0  0  0  0  0  0  0  0  0
  -12.0638    0.8884   22.9422 N   0  0  0  0  0  0  0  0  0  0  0  0
  -11.9252    0.0685   25.2172 S   0  0  0  0  0  0  0  0  0  0  0  0
  -13.1766   -0.5889   25.7406 O   0  0  0  0  0  0  0  0  0  0  0  0
  -11.0140   -1.0209   24.8102 O   0  0  0  0  0  0  0  0  0  0  0  0
  -12.0540    0.4354   27.3667 C   0  0  0  0  0  0  0  0  0  0  0  0
  -13.4841    0.3329   27.9784 C   0  0  0  0  0  0  0  0  0  0  0  0
  -13.3544   -0.0676   29.2659 C   0  0  0  0  0  0  0  0  0  0  0  0
  -12.0978   -0.5363   29.2183 N   0  0  0  0  0  0  0  0  0  0  0  0
  -11.2117    0.0365   28.3471 N   0  0  0  0  0  0  0  0  0  0  0  0
  -13.8616    3.3121   19.6361 C   0  0  0  0  0  0  0  0  0  0  0  0
  -11.0692    5.9715   14.2029 H   0  0  0  0  0  0  0  0  0  0  0  0
  -10.9698    5.9048   15.9648 H   0  0  0  0  0  0  0  0  0  0  0  0
  -12.5363    6.2573   15.1509 H   0  0  0  0  0  0  0  0  0  0  0  0
  -14.0356    3.2566   14.1177 H   0  0  0  0  0  0  0  0  0  0  0  0
  -15.9274    2.4287   15.4970 H   0  0  0  0  0  0  0  0  0  0  0  0
  -15.8737    2.5503   17.9513 H   0  0  0  0  0  0  0  0  0  0  0  0
  -10.7229    2.7147   18.4373 H   0  0  0  0  0  0  0  0  0  0  0  0
  -10.3981    4.0463   19.3014 H   0  0  0  0  0  0  0  0  0  0  0  0
  -11.9468    0.2163   22.2166 H   0  0  0  0  0  0  0  0  0  0  0  0
  -14.4084    0.5144   27.4495 H   0  0  0  0  0  0  0  0  0  0  0  0
  -14.0677   -0.3020   30.0398 H   0  0  0  0  0  0  0  0  0  0  0  0
  -11.7699   -1.3235   29.7562 H   0  0  0  0  0  0  0  0  0  0  0  0
  -14.8127    3.2339   20.1506 H   0  0  0  0  0  0  0  0  0  0  0  0
  1  2  1  0
  2  3  1  0
  3  4  2  0
  4  5  1  0
  5  6  2  0
  6  7  1  0
  7  8  2  0
  8  9  1  0
  9 10  1  0
 10 11  1  0
 11 12  1  0
 12 13  2  0
 12 14  1  0
 14 15  1  0
 15 16  2  0
 15 17  2  0
 15 18  1  0
 18 19  1  0
 19 20  2  0
 20 21  1  0
 21 22  1  0
 11 23  2  0
  8  3  1  0
 22 18  2  0
 23  7  1  0
  1 24  1  0
  1 25  1  0
  1 26  1  0
  4 27  1  0
  5 28  1  0
  6 29  1  0
 10 30  1  0
 10 31  1  0
 14 32  1  0
 19 33  1  0
 20 34  1  0
 21 35  1  0
 23 36  1  0
M  END
>  <Energy>  (708) 
557.56320019688008

>  <compound_id>  (708) 
9282

>  <target_id>  (708) 
1

>  <reference_id>  (708) 
7

>  <inspiration_ids>  (708) 
[91, 7]

>  <energy_score>  (708) 
510.02847416414176

>  <distance_score>  (708) 
11.74058389998729

>  <path>  (708) 
/opt/xchem-fragalysis-2/maxwin/BulkDock/SCRATCH/511023/C9282-P7/C9282-P7.minimised.mol

>  <scratch_subdir>  (708) 
/opt/xchem-fragalysis-2/maxwin/BulkDock/SCRATCH/511023/C9282-P7

>  <fragmenstein_runtime>  (708) 
20.083317041397095

>  <fragmenstein_outcome>  (708) 
too moved

>  <fragmenstein_mode>  (708) 
expansion

>  <fragmenstein_error>  (708) 


$$$$
C46650-P7
     RDKit          3D

 39 42  0  0  0  0  0  0  0  0999 V2000
  -14.1820    0.3547   22.2074 O   0  0  0  0  0  0  0  0  0  0  0  0
  -13.1801    1.0297   22.2711 C   0  0  0  0  0  0  0  0  0  0  0  0
  -11.9571    0.9470   23.4348 N   0  0  0  0  0  0  0  0  0  0  0  0
  -11.8787   -0.0577   25.0965 C   0  0  0  0  0  0  0  0  0  0  0  0
  -11.1828    0.1295   26.4288 N   0  0  0  0  0  0  0  0  0  0  0  0
  -11.6740    0.4096   27.6749 N   0  0  0  0  0  0  0  0  0  0  0  0
  -12.8711   -0.1065   27.6764 C   0  0  0  0  0  0  0  0  0  0  0  0
  -13.2585   -0.2016   26.2813 C   0  0  0  0  0  0  0  0  0  0  0  0
  -14.9732   -0.1663   26.6243 C   0  0  0  0  0  0  0  0  0  0  0  0
  -15.4569    0.9414   27.6312 C   0  0  0  0  0  0  0  0  0  0  0  0
  -14.7488    0.8903   28.9555 C   0  0  0  0  0  0  0  0  0  0  0  0
  -13.8011   -0.2672   28.8625 C   0  0  0  0  0  0  0  0  0  0  0  0
  -13.2905    2.3572   20.9911 C   0  0  0  0  0  0  0  0  0  0  0  0
  -12.8662    3.2369   20.1444 C   0  0  0  0  0  0  0  0  0  0  0  0
  -13.3980    3.6109   18.6759 C   0  0  0  0  0  0  0  0  0  0  0  0
  -12.5432    4.1046   17.6272 C   0  0  0  0  0  0  0  0  0  0  0  0
  -12.9350    4.1708   16.2810 C   0  0  0  0  0  0  0  0  0  0  0  0
  -14.1940    3.7115   15.9351 C   0  0  0  0  0  0  0  0  0  0  0  0
  -15.0365    3.2139   16.9386 C   0  0  0  0  0  0  0  0  0  0  0  0
  -14.6340    3.1692   18.2889 C   0  0  0  0  0  0  0  0  0  0  0  0
  -15.4436    2.5694   19.1885 O   0  0  0  0  0  0  0  0  0  0  0  0
  -14.9866    2.5734   20.5773 C   0  0  0  0  0  0  0  0  0  0  0  0
  -11.1577    1.6133   23.1576 H   0  0  0  0  0  0  0  0  0  0  0  0
  -10.2941   -0.2940   26.6138 H   0  0  0  0  0  0  0  0  0  0  0  0
  -15.2623   -1.1548   26.9972 H   0  0  0  0  0  0  0  0  0  0  0  0
  -15.7186    0.0580   25.8932 H   0  0  0  0  0  0  0  0  0  0  0  0
  -16.5333    0.8009   27.8002 H   0  0  0  0  0  0  0  0  0  0  0  0
  -15.3617    1.9429   27.1964 H   0  0  0  0  0  0  0  0  0  0  0  0
  -14.2190    1.8284   29.1562 H   0  0  0  0  0  0  0  0  0  0  0  0
  -15.4640    0.7433   29.7726 H   0  0  0  0  0  0  0  0  0  0  0  0
  -14.3842   -1.1900   28.7538 H   0  0  0  0  0  0  0  0  0  0  0  0
  -13.4015   -0.4565   29.8306 H   0  0  0  0  0  0  0  0  0  0  0  0
  -11.8040    3.2273   20.2613 H   0  0  0  0  0  0  0  0  0  0  0  0
  -11.5146    4.3772   17.8494 H   0  0  0  0  0  0  0  0  0  0  0  0
  -12.2494    4.5395   15.5249 H   0  0  0  0  0  0  0  0  0  0  0  0
  -14.5254    3.7259   14.9012 H   0  0  0  0  0  0  0  0  0  0  0  0
  -16.0178    2.8286   16.6709 H   0  0  0  0  0  0  0  0  0  0  0  0
  -15.5929    1.7630   20.9651 H   0  0  0  0  0  0  0  0  0  0  0  0
  -15.3288    3.5121   21.0382 H   0  0  0  0  0  0  0  0  0  0  0  0
  1  2  2  0
  2  3  1  0
  3  4  1  0
  4  5  1  0
  5  6  1  0
  6  7  2  0
  7  8  1  0
  8  9  1  0
  9 10  1  0
 10 11  1  0
 11 12  1  0
  2 13  1  0
 13 14  2  0
 14 15  1  0
 15 16  2  0
 16 17  1  0
 17 18  2  0
 18 19  1  0
 19 20  2  0
 20 21  1  0
 21 22  1  0
  8  4  2  0
 22 13  1  0
 12  7  1  0
 20 15  1  0
  3 23  1  0
  5 24  1  0
  9 25  1  0
  9 26  1  0
 10 27  1  0
 10 28  1  0
 11 29  1  0
 11 30  1  0
 12 31  1  0
 12 32  1  0
 14 33  1  0
 16 34  1  0
 17 35  1  0
 18 36  1  0
 19 37  1  0
 22 38  1  0
 22 39  1  0
M  END
>  <Energy>  (709) 
490.92535854073634

>  <compound_id>  (709) 
46650

>  <target_id>  (709) 
1

>  <reference_id>  (709) 
7

>  <inspiration_ids>  (709) 
[91, 7]

>  <energy_score>  (709) 
398.8835876608355

>  <distance_score>  (709) 
13.05259955903447

>  <path>  (709) 
/opt/xchem-fragalysis-2/maxwin/BulkDock/SCRATCH/511023/C46650-P7/C46650-P7.minimised.mol

>  <scratch_subdir>  (709) 
/opt/xchem-fragalysis-2/maxwin/BulkDock/SCRATCH/511023/C46650-P7

>  <fragmenstein_runtime>  (709) 
15.810302495956421

>  <fragmenstein_outcome>  (709) 
too moved

>  <fragmenstein_mode>  (709) 
expansion

>  <fragmenstein_error>  (709) 


$$$$
C9287-P7
     RDKit          3D

 29 31  0  0  0  0  0  0  0  0999 V2000
  -15.5563    1.1262   15.4996 O   0  0  0  0  0  0  0  0  0  0  0  0
  -14.7843    2.0250   15.7021 C   0  0  0  0  0  0  0  0  0  0  0  0
  -14.6116    2.8820   16.8641 N   0  0  0  0  0  0  0  0  0  0  0  0
  -15.2194    2.8580   18.1117 C   0  0  0  0  0  0  0  0  0  0  0  0
  -16.1885    1.9480   18.6184 C   0  0  0  0  0  0  0  0  0  0  0  0
  -16.3902    2.2874   19.9397 C   0  0  0  0  0  0  0  0  0  0  0  0
  -15.5690    3.3509   20.1707 N   0  0  0  0  0  0  0  0  0  0  0  0
  -14.8487    3.7086   19.0821 N   0  0  0  0  0  0  0  0  0  0  0  0
  -13.7179    2.2429   14.5659 C   0  0  0  0  0  0  0  0  0  0  0  0
  -13.5846    1.2749   13.6295 C   0  0  0  0  0  0  0  0  0  0  0  0
  -12.5861    1.3955   12.5560 C   0  0  0  0  0  0  0  0  0  0  0  0
  -12.3962    0.3828   11.5996 C   0  0  0  0  0  0  0  0  0  0  0  0
  -11.4573    0.5254   10.5661 C   0  0  0  0  0  0  0  0  0  0  0  0
  -10.7006    1.6917   10.4766 C   0  0  0  0  0  0  0  0  0  0  0  0
  -10.8836    2.7040   11.4243 C   0  0  0  0  0  0  0  0  0  0  0  0
  -11.8171    2.5525   12.4629 C   0  0  0  0  0  0  0  0  0  0  0  0
  -11.9398    3.5927   13.3418 O   0  0  0  0  0  0  0  0  0  0  0  0
  -12.8080    3.4416   14.4930 C   0  0  0  0  0  0  0  0  0  0  0  0
  -13.9228    3.5836   16.6562 H   0  0  0  0  0  0  0  0  0  0  0  0
  -16.6644    1.1410   18.0785 H   0  0  0  0  0  0  0  0  0  0  0  0
  -17.0353    1.8923   20.7102 H   0  0  0  0  0  0  0  0  0  0  0  0
  -15.4748    3.8859   21.0336 H   0  0  0  0  0  0  0  0  0  0  0  0
  -14.2001    0.3799   13.6408 H   0  0  0  0  0  0  0  0  0  0  0  0
  -12.9827   -0.5294   11.6546 H   0  0  0  0  0  0  0  0  0  0  0  0
  -11.3144   -0.2785    9.8468 H   0  0  0  0  0  0  0  0  0  0  0  0
   -9.9653    1.8101    9.6855 H   0  0  0  0  0  0  0  0  0  0  0  0
  -10.2920    3.6134   11.3611 H   0  0  0  0  0  0  0  0  0  0  0  0
  -12.1497    3.4544   15.3686 H   0  0  0  0  0  0  0  0  0  0  0  0
  -13.4182    4.3512   14.5276 H   0  0  0  0  0  0  0  0  0  0  0  0
  1  2  2  0
  2  3  1  0
  3  4  1  0
  4  5  1  0
  5  6  2  0
  6  7  1  0
  7  8  1  0
  2  9  1  0
  9 10  2  0
 10 11  1  0
 11 12  2  0
 12 13  1  0
 13 14  2  0
 14 15  1  0
 15 16  2  0
 16 17  1  0
 17 18  1  0
  8  4  2  0
 18  9  1  0
 16 11  1  0
  3 19  1  0
  5 20  1  0
  6 21  1  0
  7 22  1  0
 10 23  1  0
 12 24  1  0
 13 25  1  0
 14 26  1  0
 15 27  1  0
 18 28  1  0
 18 29  1  0
M  END
>  <Energy>  (710) 
-5.6916707154494706

>  <compound_id>  (710) 
9287

>  <target_id>  (710) 
1

>  <reference_id>  (710) 
7

>  <inspiration_ids>  (710) 
[91, 7]

>  <energy_score>  (710) 
-20.26905121128823

>  <distance_score>  (710) 
13.037131101393136

>  <path>  (710) 
/opt/xchem-fragalysis-2/maxwin/BulkDock/SCRATCH/511023/C9287-P7/C9287-P7.minimised.mol

>  <scratch_subdir>  (710) 
/opt/xchem-fragalysis-2/maxwin/BulkDock/SCRATCH/511023/C9287-P7

>  <fragmenstein_runtime>  (710) 
11.586835622787476

>  <fragmenstein_outcome>  (710) 
too moved

>  <fragmenstein_mode>  (710) 
expansion

>  <fragmenstein_error>  (710) 


$$$$
C9286-P7
     RDKit          3D

 33 35  0  0  0  0  0  0  0  0999 V2000
   -9.8076   -1.6778    7.3594 C   0  0  0  0  0  0  0  0  0  0  0  0
   -9.1804   -1.3175    8.5884 O   0  0  0  0  0  0  0  0  0  0  0  0
   -9.7582   -0.1859    9.1050 C   0  0  0  0  0  0  0  0  0  0  0  0
   -9.2964    1.0456    8.6628 C   0  0  0  0  0  0  0  0  0  0  0  0
   -9.8284    2.1971    9.2269 C   0  0  0  0  0  0  0  0  0  0  0  0
  -10.7834    2.1126   10.2529 C   0  0  0  0  0  0  0  0  0  0  0  0
  -11.2594    0.8880   10.7271 C   0  0  0  0  0  0  0  0  0  0  0  0
  -10.7254   -0.2718   10.1301 C   0  0  0  0  0  0  0  0  0  0  0  0
  -12.2392    0.8680   11.8604 C   0  0  0  0  0  0  0  0  0  0  0  0
  -12.5112    2.0169   12.5209 C   0  0  0  0  0  0  0  0  0  0  0  0
  -13.3996    2.3486   13.7870 C   0  0  0  0  0  0  0  0  0  0  0  0
  -13.4221    3.5201   14.0504 O   0  0  0  0  0  0  0  0  0  0  0  0
  -14.0327    1.2303   14.4326 N   0  0  0  0  0  0  0  0  0  0  0  0
  -14.7818    1.1564   15.6019 C   0  0  0  0  0  0  0  0  0  0  0  0
  -15.0874    2.2198   16.5134 C   0  0  0  0  0  0  0  0  0  0  0  0
  -15.7620    1.6522   17.5733 C   0  0  0  0  0  0  0  0  0  0  0  0
  -15.8774    0.3369   17.2512 N   0  0  0  0  0  0  0  0  0  0  0  0
  -15.2479   -0.0016   16.0990 N   0  0  0  0  0  0  0  0  0  0  0  0
  -11.8266    3.2998   12.0323 C   0  0  0  0  0  0  0  0  0  0  0  0
  -11.2263    3.3070   10.7302 O   0  0  0  0  0  0  0  0  0  0  0  0
   -9.4678   -2.6824    7.0899 H   0  0  0  0  0  0  0  0  0  0  0  0
   -9.5074   -0.9924    6.5597 H   0  0  0  0  0  0  0  0  0  0  0  0
  -10.8999   -1.6990    7.4460 H   0  0  0  0  0  0  0  0  0  0  0  0
   -8.5284    1.1099    7.8998 H   0  0  0  0  0  0  0  0  0  0  0  0
   -9.4843    3.1729    8.8942 H   0  0  0  0  0  0  0  0  0  0  0  0
  -11.0185   -1.2527   10.4884 H   0  0  0  0  0  0  0  0  0  0  0  0
  -12.6505   -0.0935   12.1393 H   0  0  0  0  0  0  0  0  0  0  0  0
  -13.8620    0.3986   13.8909 H   0  0  0  0  0  0  0  0  0  0  0  0
  -14.8146    3.2612   16.4059 H   0  0  0  0  0  0  0  0  0  0  0  0
  -16.1766    2.0683   18.4807 H   0  0  0  0  0  0  0  0  0  0  0  0
  -16.3664   -0.3923   17.7581 H   0  0  0  0  0  0  0  0  0  0  0  0
  -11.0508    3.5904   12.7519 H   0  0  0  0  0  0  0  0  0  0  0  0
  -12.5580    4.1145   11.9864 H   0  0  0  0  0  0  0  0  0  0  0  0
  1  2  1  0
  2  3  1  0
  3  4  2  0
  4  5  1  0
  5  6  2  0
  6  7  1  0
  7  8  2  0
  7  9  1  0
  9 10  2  0
 10 11  1  0
 11 12  2  0
 11 13  1  0
 13 14  1  0
 14 15  1  0
 15 16  2  0
 16 17  1  0
 17 18  1  0
 10 19  1  0
 19 20  1  0
  8  3  1  0
 18 14  2  0
 20  6  1  0
  1 21  1  0
  1 22  1  0
  1 23  1  0
  4 24  1  0
  5 25  1  0
  8 26  1  0
  9 27  1  0
 13 28  1  0
 15 29  1  0
 16 30  1  0
 17 31  1  0
 19 32  1  0
 19 33  1  0
M  END
>  <Energy>  (711) 
-1.0596831193695069

>  <compound_id>  (711) 
9286

>  <target_id>  (711) 
1

>  <reference_id>  (711) 
7

>  <inspiration_ids>  (711) 
[91, 7]

>  <energy_score>  (711) 
-34.19640071473839

>  <distance_score>  (711) 
13.425107308873706

>  <path>  (711) 
/opt/xchem-fragalysis-2/maxwin/BulkDock/SCRATCH/511023/C9286-P7/C9286-P7.minimised.mol

>  <scratch_subdir>  (711) 
/opt/xchem-fragalysis-2/maxwin/BulkDock/SCRATCH/511023/C9286-P7

>  <fragmenstein_runtime>  (711) 
9.748829364776611

>  <fragmenstein_outcome>  (711) 
too moved

>  <fragmenstein_mode>  (711) 
expansion

>  <fragmenstein_error>  (711) 


$$$$
C9285-P7
     RDKit          3D

 33 35  0  0  0  0  0  0  0  0999 V2000
   -9.0946    0.3666    8.5969 C   0  0  0  0  0  0  0  0  0  0  0  0
  -10.4615    0.2672    8.9810 O   0  0  0  0  0  0  0  0  0  0  0  0
  -10.8215    1.0473   10.0421 C   0  0  0  0  0  0  0  0  0  0  0  0
  -10.2832    2.2949   10.3376 C   0  0  0  0  0  0  0  0  0  0  0  0
  -10.7476    3.0132   11.4528 C   0  0  0  0  0  0  0  0  0  0  0  0
  -11.7609    2.5000   12.2783 C   0  0  0  0  0  0  0  0  0  0  0  0
  -12.3061    1.2617   11.9623 C   0  0  0  0  0  0  0  0  0  0  0  0
  -11.8463    0.5452   10.8463 C   0  0  0  0  0  0  0  0  0  0  0  0
  -13.2986    0.6825   12.6992 O   0  0  0  0  0  0  0  0  0  0  0  0
  -13.7814    1.3518   13.8866 C   0  0  0  0  0  0  0  0  0  0  0  0
  -13.2152    2.6973   14.2491 C   0  0  0  0  0  0  0  0  0  0  0  0
  -13.5978    3.4685   15.5619 C   0  0  0  0  0  0  0  0  0  0  0  0
  -12.9956    4.4955   15.7313 O   0  0  0  0  0  0  0  0  0  0  0  0
  -14.5508    2.7747   16.4177 N   0  0  0  0  0  0  0  0  0  0  0  0
  -14.9739    3.0420   17.7137 C   0  0  0  0  0  0  0  0  0  0  0  0
  -14.5787    4.1083   18.5620 C   0  0  0  0  0  0  0  0  0  0  0  0
  -15.1429    3.8648   19.7942 C   0  0  0  0  0  0  0  0  0  0  0  0
  -15.8733    2.7314   19.6341 N   0  0  0  0  0  0  0  0  0  0  0  0
  -15.7638    2.1906   18.3928 N   0  0  0  0  0  0  0  0  0  0  0  0
  -12.2488    3.2229   13.4612 C   0  0  0  0  0  0  0  0  0  0  0  0
   -8.9181    1.2848    8.0281 H   0  0  0  0  0  0  0  0  0  0  0  0
   -8.8693   -0.4803    7.9415 H   0  0  0  0  0  0  0  0  0  0  0  0
   -8.4245    0.3069    9.4615 H   0  0  0  0  0  0  0  0  0  0  0  0
   -9.5161    2.7418    9.7144 H   0  0  0  0  0  0  0  0  0  0  0  0
  -10.3060    3.9835   11.6695 H   0  0  0  0  0  0  0  0  0  0  0  0
  -12.2782   -0.4242   10.6132 H   0  0  0  0  0  0  0  0  0  0  0  0
  -13.6043    0.6512   14.7099 H   0  0  0  0  0  0  0  0  0  0  0  0
  -14.8661    1.4450   13.7608 H   0  0  0  0  0  0  0  0  0  0  0  0
  -14.7964    1.8990   15.9938 H   0  0  0  0  0  0  0  0  0  0  0  0
  -13.9277    4.9293   18.3006 H   0  0  0  0  0  0  0  0  0  0  0  0
  -15.1005    4.3954   20.7345 H   0  0  0  0  0  0  0  0  0  0  0  0
  -16.4585    2.2698   20.3228 H   0  0  0  0  0  0  0  0  0  0  0  0
  -11.7786    4.1744   13.6919 H   0  0  0  0  0  0  0  0  0  0  0  0
  1  2  1  0
  2  3  1  0
  3  4  2  0
  4  5  1  0
  5  6  2  0
  6  7  1  0
  7  8  2  0
  7  9  1  0
  9 10  1  0
 10 11  1  0
 11 12  1  0
 12 13  2  0
 12 14  1  0
 14 15  1  0
 15 16  1  0
 16 17  2  0
 17 18  1  0
 18 19  1  0
 11 20  2  0
  8  3  1  0
 19 15  2  0
 20  6  1  0
  1 21  1  0
  1 22  1  0
  1 23  1  0
  4 24  1  0
  5 25  1  0
  8 26  1  0
 10 27  1  0
 10 28  1  0
 14 29  1  0
 16 30  1  0
 17 31  1  0
 18 32  1  0
 20 33  1  0
M  END
>  <Energy>  (712) 
-2.7722168987916871

>  <compound_id>  (712) 
9285

>  <target_id>  (712) 
1

>  <reference_id>  (712) 
7

>  <inspiration_ids>  (712) 
[91, 7]

>  <energy_score>  (712) 
-22.714657474259752

>  <distance_score>  (712) 
13.174054282483626

>  <path>  (712) 
/opt/xchem-fragalysis-2/maxwin/BulkDock/SCRATCH/511023/C9285-P7/C9285-P7.minimised.mol

>  <scratch_subdir>  (712) 
/opt/xchem-fragalysis-2/maxwin/BulkDock/SCRATCH/511023/C9285-P7

>  <fragmenstein_runtime>  (712) 
15.325784921646118

>  <fragmenstein_outcome>  (712) 
too moved

>  <fragmenstein_mode>  (712) 
expansion

>  <fragmenstein_error>  (712) 


$$$$
C9284-P7
     RDKit          3D

 41 44  0  0  0  0  0  0  0  0999 V2000
   -9.9036   -0.0030   22.8560 O   0  0  0  0  0  0  0  0  0  0  0  0
  -10.7578   -0.8699   22.7722 C   0  0  0  0  0  0  0  0  0  0  0  0
  -11.6540   -1.6496   21.3004 C   0  0  0  0  0  0  0  0  0  0  0  0
  -11.7892   -2.3145   19.5210 N   0  0  0  0  0  0  0  0  0  0  0  0
  -11.7923   -1.6452   17.7320 C   0  0  0  0  0  0  0  0  0  0  0  0
  -12.5817   -0.8216   16.0795 C   0  0  0  0  0  0  0  0  0  0  0  0
  -12.1690   -0.9266   14.8176 C   0  0  0  0  0  0  0  0  0  0  0  0
  -12.3966   -0.1162   13.5394 C   0  0  0  0  0  0  0  0  0  0  0  0
  -12.0137   -0.5136   12.2385 C   0  0  0  0  0  0  0  0  0  0  0  0
  -11.9723    0.3851   11.1670 C   0  0  0  0  0  0  0  0  0  0  0  0
  -12.3044    1.7143   11.3895 C   0  0  0  0  0  0  0  0  0  0  0  0
  -12.7232    2.1160   12.6617 C   0  0  0  0  0  0  0  0  0  0  0  0
  -12.7941    1.1902   13.7064 C   0  0  0  0  0  0  0  0  0  0  0  0
  -13.2496    1.5708   14.9311 O   0  0  0  0  0  0  0  0  0  0  0  0
  -13.8137    0.4175   15.6466 C   0  0  0  0  0  0  0  0  0  0  0  0
  -11.7476   -2.8562   22.1627 C   0  0  0  0  0  0  0  0  0  0  0  0
  -11.3060   -2.6044   23.6923 C   0  0  0  0  0  0  0  0  0  0  0  0
  -10.9877   -1.3028   24.1399 N   0  0  0  0  0  0  0  0  0  0  0  0
  -11.5148   -0.2058   25.4560 C   0  0  0  0  0  0  0  0  0  0  0  0
  -10.6803   -0.0440   26.8921 C   0  0  0  0  0  0  0  0  0  0  0  0
  -11.4401    0.3792   27.9603 C   0  0  0  0  0  0  0  0  0  0  0  0
  -12.6385    0.1694   27.4528 N   0  0  0  0  0  0  0  0  0  0  0  0
  -12.7699   -0.0818   26.0843 N   0  0  0  0  0  0  0  0  0  0  0  0
  -12.5968   -1.1695   21.3790 H   0  0  0  0  0  0  0  0  0  0  0  0
  -10.9399   -2.8852   19.4969 H   0  0  0  0  0  0  0  0  0  0  0  0
  -12.5405   -1.1305   18.2594 H   0  0  0  0  0  0  0  0  0  0  0  0
  -10.7379   -1.3802   17.6523 H   0  0  0  0  0  0  0  0  0  0  0  0
  -11.7368   -1.9041   14.7438 H   0  0  0  0  0  0  0  0  0  0  0  0
  -11.6177   -1.5074   12.0665 H   0  0  0  0  0  0  0  0  0  0  0  0
  -11.6305    0.0531   10.1902 H   0  0  0  0  0  0  0  0  0  0  0  0
  -12.2542    2.4359   10.5790 H   0  0  0  0  0  0  0  0  0  0  0  0
  -13.0181    3.1464   12.8396 H   0  0  0  0  0  0  0  0  0  0  0  0
  -14.4552    0.8204   16.4390 H   0  0  0  0  0  0  0  0  0  0  0  0
  -14.5732    0.0402   14.9578 H   0  0  0  0  0  0  0  0  0  0  0  0
  -12.7426   -3.2276   22.0245 H   0  0  0  0  0  0  0  0  0  0  0  0
  -11.1491   -3.6054   21.6924 H   0  0  0  0  0  0  0  0  0  0  0  0
  -10.2863   -2.9989   23.7307 H   0  0  0  0  0  0  0  0  0  0  0  0
  -11.8470   -3.1582   24.4035 H   0  0  0  0  0  0  0  0  0  0  0  0
   -9.6311   -0.3320   27.0697 H   0  0  0  0  0  0  0  0  0  0  0  0
  -11.2362    0.5803   28.9894 H   0  0  0  0  0  0  0  0  0  0  0  0
  -13.4675    0.4452   27.9438 H   0  0  0  0  0  0  0  0  0  0  0  0
  1  2  2  0
  2  3  1  0
  3  4  1  0
  4  5  1  0
  5  6  1  0
  6  7  2  0
  7  8  1  0
  8  9  2  0
  9 10  1  0
 10 11  2  0
 11 12  1  0
 12 13  2  0
 13 14  1  0
 14 15  1  0
  3 16  1  0
 16 17  1  0
 17 18  1  0
 18 19  1  0
 19 20  1  0
 20 21  2  0
 21 22  1  0
 22 23  1  0
 18  2  1  0
 23 19  2  0
 15  6  1  0
 13  8  1  0
  3 24  1  0
  4 25  1  0
  5 26  1  0
  5 27  1  0
  7 28  1  0
  9 29  1  0
 10 30  1  0
 11 31  1  0
 12 32  1  0
 15 33  1  0
 15 34  1  0
 16 35  1  0
 16 36  1  0
 17 37  1  0
 17 38  1  0
 20 39  1  0
 21 40  1  0
 22 41  1  0
M  END
>  <Energy>  (713) 
623.63533518682698

>  <compound_id>  (713) 
9284

>  <target_id>  (713) 
1

>  <reference_id>  (713) 
7

>  <inspiration_ids>  (713) 
[91, 7]

>  <energy_score>  (713) 
534.4895049435756

>  <distance_score>  (713) 
9.58926480868813

>  <path>  (713) 
/opt/xchem-fragalysis-2/maxwin/BulkDock/SCRATCH/511023/C9284-P7/C9284-P7.minimised.mol

>  <scratch_subdir>  (713) 
/opt/xchem-fragalysis-2/maxwin/BulkDock/SCRATCH/511023/C9284-P7

>  <fragmenstein_runtime>  (713) 
12.73981785774231

>  <fragmenstein_outcome>  (713) 
too moved

>  <fragmenstein_mode>  (713) 
expansion

>  <fragmenstein_error>  (713) 


$$$$
C9283-P7
     RDKit          3D

 38 40  0  0  0  0  0  0  0  0999 V2000
  -13.3990    0.8060   10.9432 C   0  0  0  0  0  0  0  0  0  0  0  0
  -12.4618    1.9925   11.0149 N   0  0  0  0  0  0  0  0  0  0  0  0
  -13.5154    2.4820   12.0320 C   0  0  0  0  0  0  0  0  0  0  0  0
  -13.3647    1.9169   13.4423 C   0  0  0  0  0  0  0  0  0  0  0  0
  -12.2077    1.3120   13.9718 C   0  0  0  0  0  0  0  0  0  0  0  0
  -12.7159    0.4069   14.8550 C   0  0  0  0  0  0  0  0  0  0  0  0
  -13.9851    0.8198   15.1181 N   0  0  0  0  0  0  0  0  0  0  0  0
  -14.4300    1.7174   14.2367 N   0  0  0  0  0  0  0  0  0  0  0  0
  -12.1540    2.4502    9.7057 C   0  0  0  0  0  0  0  0  0  0  0  0
  -12.6930    3.2749    9.0202 O   0  0  0  0  0  0  0  0  0  0  0  0
  -10.8805    1.8420    9.1806 C   0  0  0  0  0  0  0  0  0  0  0  0
  -10.7668    0.6000    8.6802 C   0  0  0  0  0  0  0  0  0  0  0  0
   -9.4401    0.1514    8.2400 C   0  0  0  0  0  0  0  0  0  0  0  0
   -9.1782   -1.1824    7.9087 C   0  0  0  0  0  0  0  0  0  0  0  0
   -7.9056   -1.5766    7.4743 C   0  0  0  0  0  0  0  0  0  0  0  0
   -6.8844   -0.6373    7.3517 C   0  0  0  0  0  0  0  0  0  0  0  0
   -7.1422    0.6969    7.6575 C   0  0  0  0  0  0  0  0  0  0  0  0
   -8.4082    1.0813    8.1106 C   0  0  0  0  0  0  0  0  0  0  0  0
   -8.5889    2.4115    8.3562 O   0  0  0  0  0  0  0  0  0  0  0  0
   -9.6796    2.7690    9.2526 C   0  0  0  0  0  0  0  0  0  0  0  0
   -9.9450    4.2748    9.0534 C   0  0  0  0  0  0  0  0  0  0  0  0
  -10.7100    4.7934   10.0440 F   0  0  0  0  0  0  0  0  0  0  0  0
   -8.7783    4.9754    9.0893 F   0  0  0  0  0  0  0  0  0  0  0  0
  -10.5261    4.5556    7.8668 F   0  0  0  0  0  0  0  0  0  0  0  0
  -12.9079    0.0774   10.2882 H   0  0  0  0  0  0  0  0  0  0  0  0
  -14.3329    1.0261   10.4025 H   0  0  0  0  0  0  0  0  0  0  0  0
  -13.5492    0.2132   11.8516 H   0  0  0  0  0  0  0  0  0  0  0  0
  -13.2459    3.5452   12.1355 H   0  0  0  0  0  0  0  0  0  0  0  0
  -14.5517    2.5496   11.6623 H   0  0  0  0  0  0  0  0  0  0  0  0
  -11.2238    1.3129   13.5387 H   0  0  0  0  0  0  0  0  0  0  0  0
  -12.2590   -0.4529   15.3192 H   0  0  0  0  0  0  0  0  0  0  0  0
  -14.6357    0.4752   15.8098 H   0  0  0  0  0  0  0  0  0  0  0  0
  -11.5962   -0.0884    8.5904 H   0  0  0  0  0  0  0  0  0  0  0  0
   -9.9576   -1.9349    7.9931 H   0  0  0  0  0  0  0  0  0  0  0  0
   -7.7198   -2.6208    7.2324 H   0  0  0  0  0  0  0  0  0  0  0  0
   -5.8991   -0.9434    7.0111 H   0  0  0  0  0  0  0  0  0  0  0  0
   -6.3628    1.4430    7.5444 H   0  0  0  0  0  0  0  0  0  0  0  0
   -9.2996    2.6628   10.2728 H   0  0  0  0  0  0  0  0  0  0  0  0
  1  2  1  0
  2  3  1  0
  3  4  1  0
  4  5  1  0
  5  6  2  0
  6  7  1  0
  7  8  1  0
  2  9  1  0
  9 10  2  0
  9 11  1  0
 11 12  2  0
 12 13  1  0
 13 14  2  0
 14 15  1  0
 15 16  2  0
 16 17  1  0
 17 18  2  0
 18 19  1  0
 19 20  1  0
 20 21  1  0
 21 22  1  0
 21 23  1  0
 21 24  1  0
  8  4  2  0
 20 11  1  0
 18 13  1  0
  1 25  1  0
  1 26  1  0
  1 27  1  0
  3 28  1  0
  3 29  1  0
  5 30  1  0
  6 31  1  0
  7 32  1  0
 12 33  1  0
 14 34  1  0
 15 35  1  0
 16 36  1  0
 17 37  1  0
 20 38  1  0
M  END
>  <Energy>  (714) 
141.58386218629994

>  <compound_id>  (714) 
9283

>  <target_id>  (714) 
1

>  <reference_id>  (714) 
7

>  <inspiration_ids>  (714) 
[91, 7]

>  <energy_score>  (714) 
32.11630146774013

>  <distance_score>  (714) 
14.09021599433255

>  <path>  (714) 
/opt/xchem-fragalysis-2/maxwin/BulkDock/SCRATCH/511023/C9283-P7/C9283-P7.minimised.mol

>  <scratch_subdir>  (714) 
/opt/xchem-fragalysis-2/maxwin/BulkDock/SCRATCH/511023/C9283-P7

>  <fragmenstein_runtime>  (714) 
16.655147314071655

>  <fragmenstein_outcome>  (714) 
too moved

>  <fragmenstein_mode>  (714) 
expansion

>  <fragmenstein_error>  (714) 


$$$$
C46651-P7
     RDKit          3D

 39 42  0  0  0  0  0  0  0  0999 V2000
  -13.0390   -0.9394   29.3485 O   0  0  0  0  0  0  0  0  0  0  0  0
  -13.1678    0.0174   28.6410 C   0  0  0  0  0  0  0  0  0  0  0  0
  -13.6743    1.3107   28.9193 N   0  0  0  0  0  0  0  0  0  0  0  0
  -14.2817    1.8565   30.1120 C   0  0  0  0  0  0  0  0  0  0  0  0
  -13.3371    2.2353   31.2239 C   0  0  0  0  0  0  0  0  0  0  0  0
  -12.0292    2.5222   31.0273 N   0  0  0  0  0  0  0  0  0  0  0  0
  -11.5577    2.8833   32.2475 N   0  0  0  0  0  0  0  0  0  0  0  0
  -12.5280    2.8710   33.1806 C   0  0  0  0  0  0  0  0  0  0  0  0
  -13.6723    2.4525   32.5773 C   0  0  0  0  0  0  0  0  0  0  0  0
  -14.8052    2.4508   33.5183 C   0  0  0  0  0  0  0  0  0  0  0  0
  -14.1001    2.7460   34.8940 C   0  0  0  0  0  0  0  0  0  0  0  0
  -12.6355    3.2240   34.5980 C   0  0  0  0  0  0  0  0  0  0  0  0
  -12.7366   -0.1865   27.0952 C   0  0  0  0  0  0  0  0  0  0  0  0
  -13.1722   -0.8237   25.8843 C   0  0  0  0  0  0  0  0  0  0  0  0
  -12.0026   -1.8975   24.6788 C   0  0  0  0  0  0  0  0  0  0  0  0
  -11.6927   -3.0195   23.9971 C   0  0  0  0  0  0  0  0  0  0  0  0
  -11.7719   -2.9041   22.6657 C   0  0  0  0  0  0  0  0  0  0  0  0
  -11.1129   -1.9216   22.1412 C   0  0  0  0  0  0  0  0  0  0  0  0
  -11.2020   -2.3842   20.4893 Cl  0  0  0  0  0  0  0  0  0  0  0  0
  -10.5433   -1.0470   23.1176 C   0  0  0  0  0  0  0  0  0  0  0  0
  -11.0118   -1.0550   24.4643 C   0  0  0  0  0  0  0  0  0  0  0  0
  -11.3503    0.0732   25.3949 O   0  0  0  0  0  0  0  0  0  0  0  0
  -11.3763    0.1739   26.8669 C   0  0  0  0  0  0  0  0  0  0  0  0
  -13.5549    1.8964   28.0945 H   0  0  0  0  0  0  0  0  0  0  0  0
  -14.8578    2.7369   29.8090 H   0  0  0  0  0  0  0  0  0  0  0  0
  -14.9788    1.0998   30.4893 H   0  0  0  0  0  0  0  0  0  0  0  0
  -10.5781    3.1335   32.3340 H   0  0  0  0  0  0  0  0  0  0  0  0
  -15.5133    3.2502   33.2773 H   0  0  0  0  0  0  0  0  0  0  0  0
  -15.3353    1.4958   33.5417 H   0  0  0  0  0  0  0  0  0  0  0  0
  -14.0631    1.8275   35.4912 H   0  0  0  0  0  0  0  0  0  0  0  0
  -14.6559    3.4857   35.4799 H   0  0  0  0  0  0  0  0  0  0  0  0
  -11.9133    2.6991   35.2286 H   0  0  0  0  0  0  0  0  0  0  0  0
  -12.5451    4.3036   34.7506 H   0  0  0  0  0  0  0  0  0  0  0  0
  -14.1529   -0.9761   25.6956 H   0  0  0  0  0  0  0  0  0  0  0  0
  -11.8068   -4.0324   24.2874 H   0  0  0  0  0  0  0  0  0  0  0  0
  -12.3003   -3.5768   22.0383 H   0  0  0  0  0  0  0  0  0  0  0  0
   -9.8834   -0.2423   22.9215 H   0  0  0  0  0  0  0  0  0  0  0  0
  -11.4204    1.1008   27.4392 H   0  0  0  0  0  0  0  0  0  0  0  0
  -10.4128   -0.1707   27.2728 H   0  0  0  0  0  0  0  0  0  0  0  0
  1  2  2  0
  2  3  1  0
  3  4  1  0
  4  5  1  0
  5  6  2  0
  6  7  1  0
  7  8  1  0
  8  9  2  0
  9 10  1  0
 10 11  1  0
 11 12  1  0
  2 13  1  0
 13 14  2  0
 14 15  1  0
 15 16  2  0
 16 17  1  0
 17 18  2  0
 18 19  1  0
 18 20  1  0
 20 21  2  0
 21 22  1  0
 22 23  1  0
  9  5  1  0
 23 13  1  0
 12  8  1  0
 21 15  1  0
  3 24  1  0
  4 25  1  0
  4 26  1  0
  7 27  1  0
 10 28  1  0
 10 29  1  0
 11 30  1  0
 11 31  1  0
 12 32  1  0
 12 33  1  0
 14 34  1  0
 16 35  1  0
 17 36  1  0
 20 37  1  0
 23 38  1  0
 23 39  1  0
M  END
>  <Energy>  (715) 
352.16281428176381

>  <compound_id>  (715) 
46651

>  <target_id>  (715) 
1

>  <reference_id>  (715) 
7

>  <inspiration_ids>  (715) 
[91, 7]

>  <energy_score>  (715) 
285.0227139537667

>  <distance_score>  (715) 
14.5685194669252

>  <path>  (715) 
/opt/xchem-fragalysis-2/maxwin/BulkDock/SCRATCH/511023/C46651-P7/C46651-P7.minimised.mol

>  <scratch_subdir>  (715) 
/opt/xchem-fragalysis-2/maxwin/BulkDock/SCRATCH/511023/C46651-P7

>  <fragmenstein_runtime>  (715) 
15.873302221298218

>  <fragmenstein_outcome>  (715) 
too moved

>  <fragmenstein_mode>  (715) 
expansion

>  <fragmenstein_error>  (715) 


$$$$
C9289-P7
     RDKit          3D

 41 44  0  0  0  0  0  0  0  0999 V2000
   -9.9945   -1.5836   17.1187 C   0  0  0  0  0  0  0  0  0  0  0  0
   -9.4441   -1.2814   18.3272 C   0  0  0  0  0  0  0  0  0  0  0  0
  -10.0828   -2.0753   19.9230 C   0  0  0  0  0  0  0  0  0  0  0  0
  -11.1716   -1.3469   21.3364 N   0  0  0  0  0  0  0  0  0  0  0  0
  -12.1948   -2.2903   20.9190 C   0  0  0  0  0  0  0  0  0  0  0  0
  -12.4290   -3.0222   22.0756 C   0  0  0  0  0  0  0  0  0  0  0  0
  -11.1868   -3.3765   22.4614 O   0  0  0  0  0  0  0  0  0  0  0  0
  -10.7387   -2.6096   23.5615 C   0  0  0  0  0  0  0  0  0  0  0  0
  -10.8153   -1.1714   23.2640 C   0  0  0  0  0  0  0  0  0  0  0  0
  -11.4509   -0.3988   25.0422 C   0  0  0  0  0  0  0  0  0  0  0  0
  -12.7278   -0.1559   25.9488 C   0  0  0  0  0  0  0  0  0  0  0  0
  -12.5743    0.0339   27.3543 C   0  0  0  0  0  0  0  0  0  0  0  0
  -11.3641    0.4063   27.5986 N   0  0  0  0  0  0  0  0  0  0  0  0
  -10.7418   -0.1229   26.5250 N   0  0  0  0  0  0  0  0  0  0  0  0
   -8.4505    0.0930   17.9251 C   0  0  0  0  0  0  0  0  0  0  0  0
   -7.2133   -0.0064   17.3537 O   0  0  0  0  0  0  0  0  0  0  0  0
   -7.4003   -0.8238   16.2966 C   0  0  0  0  0  0  0  0  0  0  0  0
   -6.1945   -0.8824   15.5313 C   0  0  0  0  0  0  0  0  0  0  0  0
   -6.3300   -1.8628   14.5767 C   0  0  0  0  0  0  0  0  0  0  0  0
   -7.7996   -2.7157   14.3310 C   0  0  0  0  0  0  0  0  0  0  0  0
   -9.0442   -2.6157   15.0452 C   0  0  0  0  0  0  0  0  0  0  0  0
   -8.9078   -1.6698   16.0900 C   0  0  0  0  0  0  0  0  0  0  0  0
  -10.8713   -2.1896   16.9830 H   0  0  0  0  0  0  0  0  0  0  0  0
   -9.2832   -2.6799   20.2569 H   0  0  0  0  0  0  0  0  0  0  0  0
  -10.7492   -2.7107   19.3502 H   0  0  0  0  0  0  0  0  0  0  0  0
  -11.9604   -3.1354   20.2661 H   0  0  0  0  0  0  0  0  0  0  0  0
  -13.0888   -2.0148   20.4157 H   0  0  0  0  0  0  0  0  0  0  0  0
  -12.8590   -2.4181   22.8161 H   0  0  0  0  0  0  0  0  0  0  0  0
  -13.0763   -3.7937   21.6837 H   0  0  0  0  0  0  0  0  0  0  0  0
  -11.4198   -2.8622   24.3566 H   0  0  0  0  0  0  0  0  0  0  0  0
   -9.7056   -2.8719   23.7935 H   0  0  0  0  0  0  0  0  0  0  0  0
   -9.8227   -0.7319   23.2537 H   0  0  0  0  0  0  0  0  0  0  0  0
  -13.5814   -0.7315   25.7637 H   0  0  0  0  0  0  0  0  0  0  0  0
  -13.2190   -0.1802   28.1819 H   0  0  0  0  0  0  0  0  0  0  0  0
   -9.8100   -0.4421   26.7942 H   0  0  0  0  0  0  0  0  0  0  0  0
   -8.2617    0.7283   18.7874 H   0  0  0  0  0  0  0  0  0  0  0  0
   -9.0134    0.7013   17.1920 H   0  0  0  0  0  0  0  0  0  0  0  0
   -5.2899   -0.3400   15.7516 H   0  0  0  0  0  0  0  0  0  0  0  0
   -5.4262   -2.2809   14.1727 H   0  0  0  0  0  0  0  0  0  0  0  0
   -7.7756   -3.6761   13.8115 H   0  0  0  0  0  0  0  0  0  0  0  0
   -9.8832   -3.2555   14.8753 H   0  0  0  0  0  0  0  0  0  0  0  0
  1  2  2  0
  2  3  1  0
  3  4  1  0
  4  5  1  0
  5  6  1  0
  6  7  1  0
  7  8  1  0
  8  9  1  0
  9 10  1  0
 10 11  2  0
 11 12  1  0
 12 13  2  0
 13 14  1  0
  2 15  1  0
 15 16  1  0
 16 17  1  0
 17 18  2  0
 18 19  1  0
 19 20  2  0
 20 21  1  0
 21 22  2  0
 22  1  1  0
  9  4  1  0
 14 10  1  0
 22 17  1  0
  1 23  1  0
  3 24  1  0
  3 25  1  0
  5 26  1  0
  5 27  1  0
  6 28  1  0
  6 29  1  0
  8 30  1  0
  8 31  1  0
  9 32  1  0
 11 33  1  0
 12 34  1  0
 14 35  1  0
 15 36  1  0
 15 37  1  0
 18 38  1  0
 19 39  1  0
 20 40  1  0
 21 41  1  0
M  END
>  <Energy>  (716) 
679.47322788805525

>  <compound_id>  (716) 
9289

>  <target_id>  (716) 
1

>  <reference_id>  (716) 
7

>  <inspiration_ids>  (716) 
[91, 7]

>  <energy_score>  (716) 
558.2966152163438

>  <distance_score>  (716) 
9.518647577585277

>  <path>  (716) 
/opt/xchem-fragalysis-2/maxwin/BulkDock/SCRATCH/511023/C9289-P7/C9289-P7.minimised.mol

>  <scratch_subdir>  (716) 
/opt/xchem-fragalysis-2/maxwin/BulkDock/SCRATCH/511023/C9289-P7

>  <fragmenstein_runtime>  (716) 
12.215116024017334

>  <fragmenstein_outcome>  (716) 
too moved

>  <fragmenstein_mode>  (716) 
expansion

>  <fragmenstein_error>  (716) 


$$$$
C46649-P7
     RDKit          3D

 38 41  0  0  0  0  0  0  0  0999 V2000
  -11.3103   -1.3468   21.5555 O   0  0  0  0  0  0  0  0  0  0  0  0
  -12.0149   -2.3219   21.7169 C   0  0  0  0  0  0  0  0  0  0  0  0
  -12.3660   -2.6102   23.0107 O   0  0  0  0  0  0  0  0  0  0  0  0
  -12.2316   -1.9212   24.6988 C   0  0  0  0  0  0  0  0  0  0  0  0
  -13.4590   -0.9158   26.0505 C   0  0  0  0  0  0  0  0  0  0  0  0
  -14.8077   -1.2714   26.4224 N   0  0  0  0  0  0  0  0  0  0  0  0
  -14.8613   -1.4427   27.7912 N   0  0  0  0  0  0  0  0  0  0  0  0
  -13.8922   -0.7263   28.4523 C   0  0  0  0  0  0  0  0  0  0  0  0
  -13.4764    0.0242   27.3447 C   0  0  0  0  0  0  0  0  0  0  0  0
  -14.6885    1.2283   27.7917 C   0  0  0  0  0  0  0  0  0  0  0  0
  -14.4615    1.3715   29.3095 C   0  0  0  0  0  0  0  0  0  0  0  0
  -14.2178   -0.0711   29.7540 C   0  0  0  0  0  0  0  0  0  0  0  0
  -12.5371   -3.0594   20.2598 C   0  0  0  0  0  0  0  0  0  0  0  0
  -13.5820   -3.7269   19.6527 C   0  0  0  0  0  0  0  0  0  0  0  0
  -13.7943   -3.6527   18.0956 C   0  0  0  0  0  0  0  0  0  0  0  0
  -14.8816   -4.0633   17.3267 C   0  0  0  0  0  0  0  0  0  0  0  0
  -14.9029   -3.8119   15.9209 C   0  0  0  0  0  0  0  0  0  0  0  0
  -16.1052   -4.4787   14.8874 Cl  0  0  0  0  0  0  0  0  0  0  0  0
  -13.9166   -3.0742   15.2745 C   0  0  0  0  0  0  0  0  0  0  0  0
  -12.7759   -2.7911   15.9685 C   0  0  0  0  0  0  0  0  0  0  0  0
  -12.7561   -3.1296   17.3203 C   0  0  0  0  0  0  0  0  0  0  0  0
  -11.5559   -3.0857   17.9082 O   0  0  0  0  0  0  0  0  0  0  0  0
  -11.6291   -2.5228   19.1963 C   0  0  0  0  0  0  0  0  0  0  0  0
  -11.2984   -1.2999   24.5606 H   0  0  0  0  0  0  0  0  0  0  0  0
  -11.8472   -2.8636   24.9844 H   0  0  0  0  0  0  0  0  0  0  0  0
  -15.6795   -1.8943   28.1890 H   0  0  0  0  0  0  0  0  0  0  0  0
  -14.7424    2.1905   27.2826 H   0  0  0  0  0  0  0  0  0  0  0  0
  -15.6871    0.8043   27.5983 H   0  0  0  0  0  0  0  0  0  0  0  0
  -15.3132    1.8293   29.8205 H   0  0  0  0  0  0  0  0  0  0  0  0
  -13.5716    1.9822   29.5025 H   0  0  0  0  0  0  0  0  0  0  0  0
  -13.3987   -0.1411   30.4711 H   0  0  0  0  0  0  0  0  0  0  0  0
  -15.1291   -0.4835   30.1964 H   0  0  0  0  0  0  0  0  0  0  0  0
  -14.3959   -4.1904   20.1888 H   0  0  0  0  0  0  0  0  0  0  0  0
  -15.7107   -4.5920   17.7879 H   0  0  0  0  0  0  0  0  0  0  0  0
  -14.0186   -2.8017   14.2313 H   0  0  0  0  0  0  0  0  0  0  0  0
  -11.9088   -2.3498   15.4880 H   0  0  0  0  0  0  0  0  0  0  0  0
  -10.6064   -2.4914   19.5710 H   0  0  0  0  0  0  0  0  0  0  0  0
  -12.0870   -1.5993   18.9142 H   0  0  0  0  0  0  0  0  0  0  0  0
  1  2  2  0
  2  3  1  0
  3  4  1  0
  4  5  1  0
  5  6  2  0
  6  7  1  0
  7  8  1  0
  8  9  2  0
  9 10  1  0
 10 11  1  0
 11 12  1  0
  2 13  1  0
 13 14  2  0
 14 15  1  0
 15 16  2  0
 16 17  1  0
 17 18  1  0
 17 19  2  0
 19 20  1  0
 20 21  2  0
 21 22  1  0
 22 23  1  0
  9  5  1  0
 23 13  1  0
 12  8  1  0
 21 15  1  0
  4 24  1  0
  4 25  1  0
  7 26  1  0
 10 27  1  0
 10 28  1  0
 11 29  1  0
 11 30  1  0
 12 31  1  0
 12 32  1  0
 14 33  1  0
 16 34  1  0
 19 35  1  0
 20 36  1  0
 23 37  1  0
 23 38  1  0
M  END
>  <Energy>  (717) 
425.18741039512003

>  <compound_id>  (717) 
46649

>  <target_id>  (717) 
1

>  <reference_id>  (717) 
7

>  <inspiration_ids>  (717) 
[91, 7]

>  <energy_score>  (717) 
326.5187530860562

>  <distance_score>  (717) 
11.831771463709511

>  <path>  (717) 
/opt/xchem-fragalysis-2/maxwin/BulkDock/SCRATCH/511023/C46649-P7/C46649-P7.minimised.mol

>  <scratch_subdir>  (717) 
/opt/xchem-fragalysis-2/maxwin/BulkDock/SCRATCH/511023/C46649-P7

>  <fragmenstein_runtime>  (717) 
10.03835415840149

>  <fragmenstein_outcome>  (717) 
too moved

>  <fragmenstein_mode>  (717) 
expansion

>  <fragmenstein_error>  (717) 


$$$$
C9292-P7
     RDKit          3D

 38 40  0  0  0  0  0  0  0  0999 V2000
   -9.7632   -3.7409   15.9277 O   0  0  0  0  0  0  0  0  0  0  0  0
   -9.0914   -2.6917   16.1712 C   0  0  0  0  0  0  0  0  0  0  0  0
   -9.6827   -1.9203   17.8877 O   0  0  0  0  0  0  0  0  0  0  0  0
  -10.3989   -2.3575   19.7798 C   0  0  0  0  0  0  0  0  0  0  0  0
  -11.0095   -1.8726   21.8171 C   0  0  0  0  0  0  0  0  0  0  0  0
  -11.3722   -1.9443   23.8393 N   0  0  0  0  0  0  0  0  0  0  0  0
  -11.8439   -0.5405   25.1548 C   0  0  0  0  0  0  0  0  0  0  0  0
  -11.8092    0.4478   24.6770 O   0  0  0  0  0  0  0  0  0  0  0  0
  -12.5476   -0.3228   27.0133 C   0  0  0  0  0  0  0  0  0  0  0  0
  -13.4522    0.5177   27.9017 C   0  0  0  0  0  0  0  0  0  0  0  0
  -14.1688   -0.1427   29.4023 C   0  0  0  0  0  0  0  0  0  0  0  0
  -13.6852   -1.3219   29.2764 N   0  0  0  0  0  0  0  0  0  0  0  0
  -12.5416   -0.9267   28.5426 N   0  0  0  0  0  0  0  0  0  0  0  0
   -7.8093   -2.2549   14.4793 C   0  0  0  0  0  0  0  0  0  0  0  0
   -8.1553   -1.5664   12.8508 C   0  0  0  0  0  0  0  0  0  0  0  0
   -7.1970   -0.7617   11.0813 C   0  0  0  0  0  0  0  0  0  0  0  0
   -6.9017   -1.2856    9.4873 C   0  0  0  0  0  0  0  0  0  0  0  0
   -6.4371   -0.6756    8.3269 C   0  0  0  0  0  0  0  0  0  0  0  0
   -5.9653   -1.5369    6.9273 Cl  0  0  0  0  0  0  0  0  0  0  0  0
   -6.7506    0.6121    8.3012 C   0  0  0  0  0  0  0  0  0  0  0  0
   -7.4240    1.0101    9.4563 C   0  0  0  0  0  0  0  0  0  0  0  0
   -7.5098    0.4943   10.8655 C   0  0  0  0  0  0  0  0  0  0  0  0
   -6.4684   -0.1911   12.1337 O   0  0  0  0  0  0  0  0  0  0  0  0
   -7.9152   -1.2284   12.7244 C   0  0  0  0  0  0  0  0  0  0  0  0
   -9.4209   -2.6978   20.0051 H   0  0  0  0  0  0  0  0  0  0  0  0
  -11.1716   -3.0571   19.4553 H   0  0  0  0  0  0  0  0  0  0  0  0
  -11.2817   -0.8615   21.7762 H   0  0  0  0  0  0  0  0  0  0  0  0
  -10.1942   -2.4552   22.2158 H   0  0  0  0  0  0  0  0  0  0  0  0
  -11.4945   -2.8414   24.2769 H   0  0  0  0  0  0  0  0  0  0  0  0
  -14.1538    1.3422   27.6861 H   0  0  0  0  0  0  0  0  0  0  0  0
  -15.0654    0.1905   29.9240 H   0  0  0  0  0  0  0  0  0  0  0  0
  -11.8070   -1.4499   28.9894 H   0  0  0  0  0  0  0  0  0  0  0  0
   -9.6326   -1.7137   12.6625 H   0  0  0  0  0  0  0  0  0  0  0  0
   -7.3851   -2.2141    9.1508 H   0  0  0  0  0  0  0  0  0  0  0  0
   -6.7364    1.2112    7.4013 H   0  0  0  0  0  0  0  0  0  0  0  0
   -8.1073    1.8578    9.2710 H   0  0  0  0  0  0  0  0  0  0  0  0
   -8.8812   -0.6031   11.6818 H   0  0  0  0  0  0  0  0  0  0  0  0
   -8.9984   -1.2546   11.5283 H   0  0  0  0  0  0  0  0  0  0  0  0
  1  2  2  0
  2  3  1  0
  3  4  1  0
  4  5  1  0
  5  6  1  0
  6  7  1  0
  7  8  2  0
  7  9  1  0
  9 10  2  0
 10 11  1  0
 11 12  2  0
 12 13  1  0
  2 14  1  0
 14 15  2  0
 15 16  1  0
 16 17  2  0
 17 18  1  0
 18 19  1  0
 18 20  2  0
 20 21  1  0
 21 22  2  0
 22 23  1  0
 23 24  1  0
 13  9  1  0
 24 14  1  0
 22 16  1  0
  4 25  1  0
  4 26  1  0
  5 27  1  0
  5 28  1  0
  6 29  1  0
 10 30  1  0
 11 31  1  0
 13 32  1  0
 15 33  1  0
 17 34  1  0
 20 35  1  0
 21 36  1  0
 24 37  1  0
 24 38  1  0
M  END
>  <Energy>  (718) 
2612.1549103656598

>  <compound_id>  (718) 
9292

>  <target_id>  (718) 
1

>  <reference_id>  (718) 
7

>  <inspiration_ids>  (718) 
[91, 7]

>  <energy_score>  (718) 
2607.937477948876

>  <distance_score>  (718) 
6.185948723313856

>  <path>  (718) 
/opt/xchem-fragalysis-2/maxwin/BulkDock/SCRATCH/511023/C9292-P7/C9292-P7.minimised.mol

>  <scratch_subdir>  (718) 
/opt/xchem-fragalysis-2/maxwin/BulkDock/SCRATCH/511023/C9292-P7

>  <fragmenstein_runtime>  (718) 
19.11506938934326

>  <fragmenstein_outcome>  (718) 
too moved

>  <fragmenstein_mode>  (718) 
expansion

>  <fragmenstein_error>  (718) 


$$$$
C46651-P7
     RDKit          3D

 39 42  0  0  0  0  0  0  0  0999 V2000
  -13.0390   -0.9394   29.3485 O   0  0  0  0  0  0  0  0  0  0  0  0
  -13.1678    0.0174   28.6410 C   0  0  0  0  0  0  0  0  0  0  0  0
  -13.6743    1.3107   28.9193 N   0  0  0  0  0  0  0  0  0  0  0  0
  -14.2817    1.8565   30.1120 C   0  0  0  0  0  0  0  0  0  0  0  0
  -13.3371    2.2353   31.2239 C   0  0  0  0  0  0  0  0  0  0  0  0
  -12.0292    2.5222   31.0273 N   0  0  0  0  0  0  0  0  0  0  0  0
  -11.5577    2.8833   32.2475 N   0  0  0  0  0  0  0  0  0  0  0  0
  -12.5280    2.8710   33.1806 C   0  0  0  0  0  0  0  0  0  0  0  0
  -13.6723    2.4525   32.5773 C   0  0  0  0  0  0  0  0  0  0  0  0
  -14.8052    2.4508   33.5183 C   0  0  0  0  0  0  0  0  0  0  0  0
  -14.1001    2.7460   34.8940 C   0  0  0  0  0  0  0  0  0  0  0  0
  -12.6355    3.2240   34.5980 C   0  0  0  0  0  0  0  0  0  0  0  0
  -12.7366   -0.1865   27.0952 C   0  0  0  0  0  0  0  0  0  0  0  0
  -13.1722   -0.8237   25.8843 C   0  0  0  0  0  0  0  0  0  0  0  0
  -12.0026   -1.8975   24.6788 C   0  0  0  0  0  0  0  0  0  0  0  0
  -11.6927   -3.0195   23.9971 C   0  0  0  0  0  0  0  0  0  0  0  0
  -11.7719   -2.9041   22.6657 C   0  0  0  0  0  0  0  0  0  0  0  0
  -11.1129   -1.9216   22.1412 C   0  0  0  0  0  0  0  0  0  0  0  0
  -11.2020   -2.3842   20.4893 Cl  0  0  0  0  0  0  0  0  0  0  0  0
  -10.5433   -1.0470   23.1176 C   0  0  0  0  0  0  0  0  0  0  0  0
  -11.0118   -1.0550   24.4643 C   0  0  0  0  0  0  0  0  0  0  0  0
  -11.3503    0.0732   25.3949 O   0  0  0  0  0  0  0  0  0  0  0  0
  -11.3763    0.1739   26.8669 C   0  0  0  0  0  0  0  0  0  0  0  0
  -13.5549    1.8964   28.0945 H   0  0  0  0  0  0  0  0  0  0  0  0
  -14.8578    2.7369   29.8090 H   0  0  0  0  0  0  0  0  0  0  0  0
  -14.9788    1.0998   30.4893 H   0  0  0  0  0  0  0  0  0  0  0  0
  -10.5781    3.1335   32.3340 H   0  0  0  0  0  0  0  0  0  0  0  0
  -15.5133    3.2502   33.2773 H   0  0  0  0  0  0  0  0  0  0  0  0
  -15.3353    1.4958   33.5417 H   0  0  0  0  0  0  0  0  0  0  0  0
  -14.0631    1.8275   35.4912 H   0  0  0  0  0  0  0  0  0  0  0  0
  -14.6559    3.4857   35.4799 H   0  0  0  0  0  0  0  0  0  0  0  0
  -11.9133    2.6991   35.2286 H   0  0  0  0  0  0  0  0  0  0  0  0
  -12.5451    4.3036   34.7506 H   0  0  0  0  0  0  0  0  0  0  0  0
  -14.1529   -0.9761   25.6956 H   0  0  0  0  0  0  0  0  0  0  0  0
  -11.8068   -4.0324   24.2874 H   0  0  0  0  0  0  0  0  0  0  0  0
  -12.3003   -3.5768   22.0383 H   0  0  0  0  0  0  0  0  0  0  0  0
   -9.8834   -0.2423   22.9215 H   0  0  0  0  0  0  0  0  0  0  0  0
  -11.4204    1.1008   27.4392 H   0  0  0  0  0  0  0  0  0  0  0  0
  -10.4128   -0.1707   27.2728 H   0  0  0  0  0  0  0  0  0  0  0  0
  1  2  2  0
  2  3  1  0
  3  4  1  0
  4  5  1  0
  5  6  2  0
  6  7  1  0
  7  8  1  0
  8  9  2  0
  9 10  1  0
 10 11  1  0
 11 12  1  0
  2 13  1  0
 13 14  2  0
 14 15  1  0
 15 16  2  0
 16 17  1  0
 17 18  2  0
 18 19  1  0
 18 20  1  0
 20 21  2  0
 21 22  1  0
 22 23  1  0
  9  5  1  0
 23 13  1  0
 12  8  1  0
 21 15  1  0
  3 24  1  0
  4 25  1  0
  4 26  1  0
  7 27  1  0
 10 28  1  0
 10 29  1  0
 11 30  1  0
 11 31  1  0
 12 32  1  0
 12 33  1  0
 14 34  1  0
 16 35  1  0
 17 36  1  0
 20 37  1  0
 23 38  1  0
 23 39  1  0
M  END
>  <Energy>  (719) 
352.16281428176381

>  <compound_id>  (719) 
46651

>  <target_id>  (719) 
1

>  <reference_id>  (719) 
7

>  <inspiration_ids>  (719) 
[91, 7]

>  <energy_score>  (719) 
285.0227139537667

>  <distance_score>  (719) 
14.5685194669252

>  <path>  (719) 
/opt/xchem-fragalysis-2/maxwin/BulkDock/SCRATCH/511023/C46651-P7/C46651-P7.minimised.mol

>  <scratch_subdir>  (719) 
/opt/xchem-fragalysis-2/maxwin/BulkDock/SCRATCH/511023/C46651-P7

>  <fragmenstein_runtime>  (719) 
16.18836259841919

>  <fragmenstein_outcome>  (719) 
too moved

>  <fragmenstein_mode>  (719) 
expansion

>  <fragmenstein_error>  (719) 


$$$$
C9288-P7
     RDKit          3D

 36 38  0  0  0  0  0  0  0  0999 V2000
   -5.2752    3.3414   19.5594 C   0  0  0  0  0  0  0  0  0  0  0  0
   -6.1558    2.0029   19.9089 C   0  0  0  0  0  0  0  0  0  0  0  0
   -6.4101    1.7923   21.8599 N   0  0  0  0  0  0  0  0  0  0  0  0
   -7.8000    1.1820   23.1045 C   0  0  0  0  0  0  0  0  0  0  0  0
   -7.6589    0.0866   24.8908 C   0  0  0  0  0  0  0  0  0  0  0  0
   -8.0190    0.4669   26.3414 C   0  0  0  0  0  0  0  0  0  0  0  0
   -8.4067   -0.6054   27.0977 C   0  0  0  0  0  0  0  0  0  0  0  0
   -7.8770   -1.5522   26.2998 N   0  0  0  0  0  0  0  0  0  0  0  0
   -7.7147   -1.2744   24.9776 N   0  0  0  0  0  0  0  0  0  0  0  0
   -6.4171    1.0680   18.3833 C   0  0  0  0  0  0  0  0  0  0  0  0
   -7.4422    0.3406   17.7278 C   0  0  0  0  0  0  0  0  0  0  0  0
   -7.4218   -0.7118   16.0482 C   0  0  0  0  0  0  0  0  0  0  0  0
   -8.0980   -1.9028   15.6548 C   0  0  0  0  0  0  0  0  0  0  0  0
   -7.4514   -2.4621   14.4795 C   0  0  0  0  0  0  0  0  0  0  0  0
   -5.8405   -2.0210   14.1996 C   0  0  0  0  0  0  0  0  0  0  0  0
   -5.0305   -1.0637   14.5431 C   0  0  0  0  0  0  0  0  0  0  0  0
   -5.9332   -0.2426   15.0451 C   0  0  0  0  0  0  0  0  0  0  0  0
   -4.8754    0.7306   16.0042 O   0  0  0  0  0  0  0  0  0  0  0  0
   -5.2722    1.3677   17.4181 C   0  0  0  0  0  0  0  0  0  0  0  0
   -4.7744    3.3874   18.6057 H   0  0  0  0  0  0  0  0  0  0  0  0
   -5.9258    4.2247   19.4315 H   0  0  0  0  0  0  0  0  0  0  0  0
   -4.5711    3.5617   20.3695 H   0  0  0  0  0  0  0  0  0  0  0  0
   -7.1226    2.4993   19.6574 H   0  0  0  0  0  0  0  0  0  0  0  0
   -7.1999    2.3036   21.6008 H   0  0  0  0  0  0  0  0  0  0  0  0
   -7.3200    1.5452   24.1190 H   0  0  0  0  0  0  0  0  0  0  0  0
   -8.7182    1.7497   22.8418 H   0  0  0  0  0  0  0  0  0  0  0  0
   -7.6798    1.3752   26.7649 H   0  0  0  0  0  0  0  0  0  0  0  0
   -8.6940   -0.7794   28.1240 H   0  0  0  0  0  0  0  0  0  0  0  0
   -7.7794   -2.4846   26.6485 H   0  0  0  0  0  0  0  0  0  0  0  0
   -8.3720    0.1276   18.2227 H   0  0  0  0  0  0  0  0  0  0  0  0
   -7.1616   -1.9093   16.1625 H   0  0  0  0  0  0  0  0  0  0  0  0
   -8.0010   -3.2125   13.9149 H   0  0  0  0  0  0  0  0  0  0  0  0
   -5.6628   -1.4375   13.1974 H   0  0  0  0  0  0  0  0  0  0  0  0
   -4.0033   -0.8887   14.2755 H   0  0  0  0  0  0  0  0  0  0  0  0
   -4.3018    1.6172   17.7834 H   0  0  0  0  0  0  0  0  0  0  0  0
   -5.6001    2.3791   17.3208 H   0  0  0  0  0  0  0  0  0  0  0  0
  1  2  1  0
  2  3  1  0
  3  4  1  0
  4  5  1  0
  5  6  1  0
  6  7  2  0
  7  8  1  0
  8  9  1  0
  2 10  1  0
 10 11  2  0
 11 12  1  0
 12 13  2  0
 13 14  1  0
 14 15  2  0
 15 16  1  0
 16 17  2  0
 17 18  1  0
 18 19  1  0
  9  5  2  0
 19 10  1  0
 17 12  1  0
  1 20  1  0
  1 21  1  0
  1 22  1  0
  2 23  1  0
  3 24  1  0
  4 25  1  0
  4 26  1  0
  6 27  1  0
  7 28  1  0
  8 29  1  0
 11 30  1  0
 13 31  1  0
 14 32  1  0
 15 33  1  0
 16 34  1  0
 19 35  1  0
 19 36  1  0
M  END
>  <Energy>  (720) 
913.48258948851333

>  <compound_id>  (720) 
9288

>  <target_id>  (720) 
1

>  <reference_id>  (720) 
7

>  <inspiration_ids>  (720) 
[91, 7]

>  <energy_score>  (720) 
853.631170422056

>  <distance_score>  (720) 
9.745017973156843

>  <path>  (720) 
/opt/xchem-fragalysis-2/maxwin/BulkDock/SCRATCH/511023/C9288-P7/C9288-P7.minimised.mol

>  <scratch_subdir>  (720) 
/opt/xchem-fragalysis-2/maxwin/BulkDock/SCRATCH/511023/C9288-P7

>  <fragmenstein_runtime>  (720) 
15.285465478897095

>  <fragmenstein_outcome>  (720) 
too moved

>  <fragmenstein_mode>  (720) 
expansion

>  <fragmenstein_error>  (720) 


$$$$
C46661-P27
     RDKit          3D

 57 59  0  0  0  0  0  0  0  0999 V2000
   15.5750    1.1167   20.2529 C   0  0  0  0  0  0  0  0  0  0  0  0
   14.3645    0.2304   20.4995 C   0  0  0  0  0  0  0  0  0  0  0  0
   14.6675   -1.1551   21.1040 C   0  0  0  0  0  0  0  0  0  0  0  0
   15.7290   -1.9426   20.3161 C   0  0  0  0  0  0  0  0  0  0  0  0
   15.2853   -2.2678   18.8853 C   0  0  0  0  0  0  0  0  0  0  0  0
   14.9144   -1.0608   22.6543 C   0  0  0  0  0  0  0  0  0  0  0  0
   16.0260   -1.1327   23.0971 O   0  0  0  0  0  0  0  0  0  0  0  0
   13.6309   -0.9215   23.3282 N   0  0  0  0  0  0  0  0  0  0  0  0
   13.2972   -0.7272   24.7645 C   0  0  0  0  0  0  0  0  0  0  0  0
   14.4916   -0.8353   25.6918 C   0  0  0  0  0  0  0  0  0  0  0  0
   14.9220   -2.2562   25.9613 C   0  0  0  0  0  0  0  0  0  0  0  0
   13.9017   -2.9179   26.8619 C   0  0  0  0  0  0  0  0  0  0  0  0
   12.5482   -3.1032   26.1818 C   0  0  0  0  0  0  0  0  0  0  0  0
   11.3978   -2.1496   26.3711 N   0  0  0  0  0  0  0  0  0  0  0  0
   11.1903   -1.0958   27.3446 C   0  0  0  0  0  0  0  0  0  0  0  0
   11.9278   -0.6570   28.1919 O   0  0  0  0  0  0  0  0  0  0  0  0
    9.6589   -0.5871   27.2374 C   0  0  0  0  0  0  0  0  0  0  0  0
    9.1523    0.5554   28.1286 C   0  0  0  0  0  0  0  0  0  0  0  0
    7.6451    0.5692   27.8134 C   0  0  0  0  0  0  0  0  0  0  0  0
    7.3442   -0.9268   27.6801 C   0  0  0  0  0  0  0  0  0  0  0  0
    8.6773   -1.5767   27.8642 N   0  0  0  0  0  0  0  0  0  0  0  0
    8.9796   -1.4876   29.3180 C   0  0  0  0  0  0  0  0  0  0  0  0
    9.2718   -0.0072   29.5471 C   0  0  0  0  0  0  0  0  0  0  0  0
   11.9598   -1.5654   25.0648 C   0  0  0  0  0  0  0  0  0  0  0  0
   16.1622    1.2458   21.1673 H   0  0  0  0  0  0  0  0  0  0  0  0
   16.2266    0.7065   19.4761 H   0  0  0  0  0  0  0  0  0  0  0  0
   15.2508    2.1075   19.9180 H   0  0  0  0  0  0  0  0  0  0  0  0
   13.8527    0.1030   19.5408 H   0  0  0  0  0  0  0  0  0  0  0  0
   13.6776    0.7742   21.1579 H   0  0  0  0  0  0  0  0  0  0  0  0
   13.7727   -1.7722   20.9906 H   0  0  0  0  0  0  0  0  0  0  0  0
   16.6854   -1.4088   20.3007 H   0  0  0  0  0  0  0  0  0  0  0  0
   15.9239   -2.8883   20.8378 H   0  0  0  0  0  0  0  0  0  0  0  0
   15.1783   -1.3625   18.2813 H   0  0  0  0  0  0  0  0  0  0  0  0
   14.3317   -2.8052   18.8815 H   0  0  0  0  0  0  0  0  0  0  0  0
   16.0331   -2.9037   18.4007 H   0  0  0  0  0  0  0  0  0  0  0  0
   12.8833   -0.9769   22.6366 H   0  0  0  0  0  0  0  0  0  0  0  0
   12.9946    0.3290   24.8023 H   0  0  0  0  0  0  0  0  0  0  0  0
   15.3368   -0.2621   25.2952 H   0  0  0  0  0  0  0  0  0  0  0  0
   14.2445   -0.3475   26.6438 H   0  0  0  0  0  0  0  0  0  0  0  0
   15.8916   -2.2474   26.4730 H   0  0  0  0  0  0  0  0  0  0  0  0
   15.0536   -2.8270   25.0360 H   0  0  0  0  0  0  0  0  0  0  0  0
   13.8005   -2.3788   27.8096 H   0  0  0  0  0  0  0  0  0  0  0  0
   14.2941   -3.9104   27.1208 H   0  0  0  0  0  0  0  0  0  0  0  0
   12.6211   -3.6378   25.2175 H   0  0  0  0  0  0  0  0  0  0  0  0
   12.1315   -3.9286   26.7868 H   0  0  0  0  0  0  0  0  0  0  0  0
    9.4258   -0.4263   26.1790 H   0  0  0  0  0  0  0  0  0  0  0  0
    9.6454    1.5202   27.9951 H   0  0  0  0  0  0  0  0  0  0  0  0
    7.0529    1.0412   28.6041 H   0  0  0  0  0  0  0  0  0  0  0  0
    7.4619    1.1078   26.8860 H   0  0  0  0  0  0  0  0  0  0  0  0
    6.6096   -1.2686   28.4188 H   0  0  0  0  0  0  0  0  0  0  0  0
    6.9369   -1.1889   26.7029 H   0  0  0  0  0  0  0  0  0  0  0  0
    9.8564   -2.1003   29.5578 H   0  0  0  0  0  0  0  0  0  0  0  0
    8.1592   -1.8567   29.9440 H   0  0  0  0  0  0  0  0  0  0  0  0
   10.2796    0.1331   29.9504 H   0  0  0  0  0  0  0  0  0  0  0  0
    8.5638    0.4525   30.2446 H   0  0  0  0  0  0  0  0  0  0  0  0
   11.7650   -2.2725   24.2411 H   0  0  0  0  0  0  0  0  0  0  0  0
   11.1978   -0.8015   24.8415 H   0  0  0  0  0  0  0  0  0  0  0  0
  1  2  1  0
  2  3  1  0
  3  4  1  0
  4  5  1  0
  3  6  1  0
  6  7  2  0
  6  8  1  0
  8  9  1  0
  9 10  1  0
 10 11  1  0
 11 12  1  0
 12 13  1  0
 13 14  1  0
 14 15  1  0
 15 16  2  0
 15 17  1  0
 17 18  1  0
 18 19  1  0
 19 20  1  0
 20 21  1  0
 21 22  1  0
 22 23  1  0
 14 24  1  0
 24  9  1  0
 21 17  1  0
 23 18  1  0
  1 25  1  0
  1 26  1  0
  1 27  1  0
  2 28  1  0
  2 29  1  0
  3 30  1  0
  4 31  1  0
  4 32  1  0
  5 33  1  0
  5 34  1  0
  5 35  1  0
  8 36  1  0
  9 37  1  0
 10 38  1  0
 10 39  1  0
 11 40  1  0
 11 41  1  0
 12 42  1  0
 12 43  1  0
 13 44  1  0
 13 45  1  0
 17 46  1  0
 18 47  1  0
 19 48  1  0
 19 49  1  0
 20 50  1  0
 20 51  1  0
 22 52  1  0
 22 53  1  0
 23 54  1  0
 23 55  1  0
 24 56  1  0
 24 57  1  0
M  END
>  <Energy>  (721) 
163.46871974321215

>  <compound_id>  (721) 
46661

>  <target_id>  (721) 
1

>  <reference_id>  (721) 
27

>  <inspiration_ids>  (721) 
[27, 44]

>  <energy_score>  (721) 
39.240260222359495

>  <distance_score>  (721) 
8.408476007299656

>  <path>  (721) 
/opt/xchem-fragalysis-2/maxwin/BulkDock/SCRATCH/511023/C46661-P27/C46661-P27.minimised.mol

>  <scratch_subdir>  (721) 
/opt/xchem-fragalysis-2/maxwin/BulkDock/SCRATCH/511023/C46661-P27

>  <fragmenstein_runtime>  (721) 
20.21985411643982

>  <fragmenstein_outcome>  (721) 
too moved

>  <fragmenstein_mode>  (721) 
expansion

>  <fragmenstein_error>  (721) 


$$$$
C46661-P44
     RDKit          3D

 57 59  0  0  0  0  0  0  0  0999 V2000
   12.4940    3.5191   21.3869 C   0  0  0  0  0  0  0  0  0  0  0  0
   12.0805    2.5381   22.4751 C   0  0  0  0  0  0  0  0  0  0  0  0
   13.2477    1.8649   23.2167 C   0  0  0  0  0  0  0  0  0  0  0  0
   14.0041    0.7382   22.4511 C   0  0  0  0  0  0  0  0  0  0  0  0
   14.8192    1.1441   21.2308 C   0  0  0  0  0  0  0  0  0  0  0  0
   12.7797    1.3309   24.6191 C   0  0  0  0  0  0  0  0  0  0  0  0
   13.3182    1.7552   25.6009 O   0  0  0  0  0  0  0  0  0  0  0  0
   11.7924    0.3022   24.4635 N   0  0  0  0  0  0  0  0  0  0  0  0
   11.2059   -0.6159   25.4313 C   0  0  0  0  0  0  0  0  0  0  0  0
   12.3663   -1.5048   25.9101 C   0  0  0  0  0  0  0  0  0  0  0  0
   11.9067   -2.9056   26.2651 C   0  0  0  0  0  0  0  0  0  0  0  0
   10.5138   -2.9174   26.8753 C   0  0  0  0  0  0  0  0  0  0  0  0
   10.2067   -1.6588   27.7117 C   0  0  0  0  0  0  0  0  0  0  0  0
    9.0849   -0.8055   27.2022 N   0  0  0  0  0  0  0  0  0  0  0  0
    8.1879    0.0987   27.9064 C   0  0  0  0  0  0  0  0  0  0  0  0
    8.1833    0.4540   29.0584 O   0  0  0  0  0  0  0  0  0  0  0  0
    7.0008    0.5614   26.9598 C   0  0  0  0  0  0  0  0  0  0  0  0
    5.8759   -0.4478   26.7096 C   0  0  0  0  0  0  0  0  0  0  0  0
    4.8855    0.3687   25.8626 C   0  0  0  0  0  0  0  0  0  0  0  0
    5.0515    1.7674   26.4537 C   0  0  0  0  0  0  0  0  0  0  0  0
    6.0334    1.5803   27.5626 N   0  0  0  0  0  0  0  0  0  0  0  0
    5.3119    0.8213   28.6309 C   0  0  0  0  0  0  0  0  0  0  0  0
    5.2360   -0.6046   28.0936 C   0  0  0  0  0  0  0  0  0  0  0  0
   10.2952    0.0071   26.5675 C   0  0  0  0  0  0  0  0  0  0  0  0
   13.0090    3.0402   20.5593 H   0  0  0  0  0  0  0  0  0  0  0  0
   11.6070    4.0159   20.9799 H   0  0  0  0  0  0  0  0  0  0  0  0
   13.1512    4.2943   21.7939 H   0  0  0  0  0  0  0  0  0  0  0  0
   11.3784    1.8028   22.0777 H   0  0  0  0  0  0  0  0  0  0  0  0
   11.4962    3.1090   23.2102 H   0  0  0  0  0  0  0  0  0  0  0  0
   13.9850    2.6482   23.4459 H   0  0  0  0  0  0  0  0  0  0  0  0
   13.3351   -0.0701   22.1613 H   0  0  0  0  0  0  0  0  0  0  0  0
   14.7042    0.2800   23.1638 H   0  0  0  0  0  0  0  0  0  0  0  0
   14.2001    1.3668   20.3654 H   0  0  0  0  0  0  0  0  0  0  0  0
   15.4834    0.3228   20.9408 H   0  0  0  0  0  0  0  0  0  0  0  0
   15.4427    2.0162   21.4503 H   0  0  0  0  0  0  0  0  0  0  0  0
   11.6253    0.1496   23.4702 H   0  0  0  0  0  0  0  0  0  0  0  0
   10.5524   -1.2401   24.8242 H   0  0  0  0  0  0  0  0  0  0  0  0
   13.1436   -1.6003   25.1398 H   0  0  0  0  0  0  0  0  0  0  0  0
   12.8612   -1.0340   26.7691 H   0  0  0  0  0  0  0  0  0  0  0  0
   12.6269   -3.3497   26.9626 H   0  0  0  0  0  0  0  0  0  0  0  0
   11.9080   -3.5429   25.3724 H   0  0  0  0  0  0  0  0  0  0  0  0
    9.7602   -3.0381   26.0881 H   0  0  0  0  0  0  0  0  0  0  0  0
   10.4286   -3.8109   27.5070 H   0  0  0  0  0  0  0  0  0  0  0  0
    9.7022   -2.0862   28.5962 H   0  0  0  0  0  0  0  0  0  0  0  0
   11.0525   -1.1866   28.2394 H   0  0  0  0  0  0  0  0  0  0  0  0
    7.4440    0.9693   26.0478 H   0  0  0  0  0  0  0  0  0  0  0  0
    6.1728   -1.3968   26.2588 H   0  0  0  0  0  0  0  0  0  0  0  0
    3.8580    0.0003   25.9478 H   0  0  0  0  0  0  0  0  0  0  0  0
    5.1662    0.3581   24.8081 H   0  0  0  0  0  0  0  0  0  0  0  0
    4.1043    2.1996   26.7949 H   0  0  0  0  0  0  0  0  0  0  0  0
    5.4693    2.4546   25.7088 H   0  0  0  0  0  0  0  0  0  0  0  0
    5.8586    0.8608   29.5781 H   0  0  0  0  0  0  0  0  0  0  0  0
    4.3195    1.2409   28.8346 H   0  0  0  0  0  0  0  0  0  0  0  0
    4.2082   -0.9782   28.0444 H   0  0  0  0  0  0  0  0  0  0  0  0
    5.8227   -1.2867   28.7188 H   0  0  0  0  0  0  0  0  0  0  0  0
    9.7660    0.8277   26.0580 H   0  0  0  0  0  0  0  0  0  0  0  0
   10.8667    0.5581   27.3340 H   0  0  0  0  0  0  0  0  0  0  0  0
  1  2  1  0
  2  3  1  0
  3  4  1  0
  4  5  1  0
  3  6  1  0
  6  7  2  0
  6  8  1  0
  8  9  1  0
  9 10  1  0
 10 11  1  0
 11 12  1  0
 12 13  1  0
 13 14  1  0
 14 15  1  0
 15 16  2  0
 15 17  1  0
 17 18  1  0
 18 19  1  0
 19 20  1  0
 20 21  1  0
 21 22  1  0
 22 23  1  0
 14 24  1  0
 24  9  1  0
 21 17  1  0
 23 18  1  0
  1 25  1  0
  1 26  1  0
  1 27  1  0
  2 28  1  0
  2 29  1  0
  3 30  1  0
  4 31  1  0
  4 32  1  0
  5 33  1  0
  5 34  1  0
  5 35  1  0
  8 36  1  0
  9 37  1  0
 10 38  1  0
 10 39  1  0
 11 40  1  0
 11 41  1  0
 12 42  1  0
 12 43  1  0
 13 44  1  0
 13 45  1  0
 17 46  1  0
 18 47  1  0
 19 48  1  0
 19 49  1  0
 20 50  1  0
 20 51  1  0
 22 52  1  0
 22 53  1  0
 23 54  1  0
 23 55  1  0
 24 56  1  0
 24 57  1  0
M  END
>  <Energy>  (722) 
156.61434487301898

>  <compound_id>  (722) 
46661

>  <target_id>  (722) 
1

>  <reference_id>  (722) 
44

>  <inspiration_ids>  (722) 
[27, 44]

>  <energy_score>  (722) 
32.385885352166156

>  <distance_score>  (722) 
8.302079343373142

>  <path>  (722) 
/opt/xchem-fragalysis-2/maxwin/BulkDock/SCRATCH/511023/C46661-P44/C46661-P44.minimised.mol

>  <scratch_subdir>  (722) 
/opt/xchem-fragalysis-2/maxwin/BulkDock/SCRATCH/511023/C46661-P44

>  <fragmenstein_runtime>  (722) 
14.749358892440796

>  <fragmenstein_outcome>  (722) 
too moved

>  <fragmenstein_mode>  (722) 
expansion

>  <fragmenstein_error>  (722) 


$$$$
C46665-P27
     RDKit          3D

 49 50  0  0  0  0  0  0  0  0999 V2000
   16.2733    1.5828   17.6894 C   0  0  0  0  0  0  0  0  0  0  0  0
   15.6879    2.9671   17.9610 C   0  0  0  0  0  0  0  0  0  0  0  0
   14.2430    3.0024   18.5066 C   0  0  0  0  0  0  0  0  0  0  0  0
   13.2969    2.1052   17.6667 C   0  0  0  0  0  0  0  0  0  0  0  0
   13.2760    2.3516   16.1634 C   0  0  0  0  0  0  0  0  0  0  0  0
   14.1966    2.5876   20.0202 C   0  0  0  0  0  0  0  0  0  0  0  0
   15.1264    1.9779   20.4731 O   0  0  0  0  0  0  0  0  0  0  0  0
   12.9228    2.9565   20.6177 N   0  0  0  0  0  0  0  0  0  0  0  0
   12.3592    2.6295   21.8683 C   0  0  0  0  0  0  0  0  0  0  0  0
   13.0303    1.7291   22.6893 C   0  0  0  0  0  0  0  0  0  0  0  0
   12.3079    1.0303   23.6378 C   0  0  0  0  0  0  0  0  0  0  0  0
   10.9147    1.1682   23.6753 C   0  0  0  0  0  0  0  0  0  0  0  0
   10.1915    2.0319   22.8136 C   0  0  0  0  0  0  0  0  0  0  0  0
    8.7665    1.8323   22.9493 N   0  0  0  0  0  0  0  0  0  0  0  0
    7.5219    1.3912   21.7222 C   0  0  0  0  0  0  0  0  0  0  0  0
    7.6675    1.2731   20.5511 O   0  0  0  0  0  0  0  0  0  0  0  0
    5.7668    1.2245   22.1965 N   0  0  0  0  0  0  0  0  0  0  0  0
    4.8974    0.1524   22.5839 C   0  0  0  0  0  0  0  0  0  0  0  0
    4.1304    0.0472   24.5373 C   0  0  0  0  0  0  0  0  0  0  0  0
    3.9049   -1.2970   25.0110 N   0  0  0  0  0  0  0  0  0  0  0  0
    4.7065   -1.8460   23.9559 C   0  0  0  0  0  0  0  0  0  0  0  0
    5.3560   -0.7352   22.5847 C   0  0  0  0  0  0  0  0  0  0  0  0
   10.9750    2.9028   22.0802 C   0  0  0  0  0  0  0  0  0  0  0  0
   15.7338    1.0441   16.9074 H   0  0  0  0  0  0  0  0  0  0  0  0
   17.3101    1.6860   17.3512 H   0  0  0  0  0  0  0  0  0  0  0  0
   16.2840    0.9553   18.5837 H   0  0  0  0  0  0  0  0  0  0  0  0
   15.7273    3.5424   17.0275 H   0  0  0  0  0  0  0  0  0  0  0  0
   16.3489    3.4910   18.6632 H   0  0  0  0  0  0  0  0  0  0  0  0
   13.8977    4.0434   18.4511 H   0  0  0  0  0  0  0  0  0  0  0  0
   12.2801    2.2846   18.0031 H   0  0  0  0  0  0  0  0  0  0  0  0
   13.5060    1.0467   17.8621 H   0  0  0  0  0  0  0  0  0  0  0  0
   12.5065    1.7306   15.6933 H   0  0  0  0  0  0  0  0  0  0  0  0
   14.2287    2.1147   15.6851 H   0  0  0  0  0  0  0  0  0  0  0  0
   13.0396    3.3990   15.9499 H   0  0  0  0  0  0  0  0  0  0  0  0
   12.3386    3.4025   19.9095 H   0  0  0  0  0  0  0  0  0  0  0  0
   14.0832    1.5017   22.5586 H   0  0  0  0  0  0  0  0  0  0  0  0
   12.8022    0.3025   24.2755 H   0  0  0  0  0  0  0  0  0  0  0  0
   10.3793    0.5186   24.3668 H   0  0  0  0  0  0  0  0  0  0  0  0
    8.3820    1.7752   23.8708 H   0  0  0  0  0  0  0  0  0  0  0  0
    4.1200    1.0298   22.4781 H   0  0  0  0  0  0  0  0  0  0  0  0
    4.2265    0.2074   21.6134 H   0  0  0  0  0  0  0  0  0  0  0  0
    4.7438    0.4075   25.3992 H   0  0  0  0  0  0  0  0  0  0  0  0
    3.2208    0.6752   24.6942 H   0  0  0  0  0  0  0  0  0  0  0  0
    2.9286   -1.5672   24.8613 H   0  0  0  0  0  0  0  0  0  0  0  0
    5.5508   -2.3494   24.4131 H   0  0  0  0  0  0  0  0  0  0  0  0
    4.0052   -2.5317   23.4991 H   0  0  0  0  0  0  0  0  0  0  0  0
    5.9967   -1.3090   21.8374 H   0  0  0  0  0  0  0  0  0  0  0  0
    4.9188   -1.4693   21.8710 H   0  0  0  0  0  0  0  0  0  0  0  0
   10.5226    3.7566   21.5952 H   0  0  0  0  0  0  0  0  0  0  0  0
  1  2  1  0
  2  3  1  0
  3  4  1  0
  4  5  1  0
  3  6  1  0
  6  7  2  0
  6  8  1  0
  8  9  1  0
  9 10  2  0
 10 11  1  0
 11 12  2  0
 12 13  1  0
 13 14  1  0
 14 15  1  0
 15 16  2  0
 15 17  1  0
 17 18  1  0
 18 19  1  0
 19 20  1  0
 20 21  1  0
 21 22  1  0
 13 23  2  0
 23  9  1  0
 22 17  1  0
  1 24  1  0
  1 25  1  0
  1 26  1  0
  2 27  1  0
  2 28  1  0
  3 29  1  0
  4 30  1  0
  4 31  1  0
  5 32  1  0
  5 33  1  0
  5 34  1  0
  8 35  1  0
 10 36  1  0
 11 37  1  0
 12 38  1  0
 14 39  1  0
 18 40  1  0
 18 41  1  0
 19 42  1  0
 19 43  1  0
 20 44  1  0
 21 45  1  0
 21 46  1  0
 22 47  1  0
 22 48  1  0
 23 49  1  0
M  END
>  <Energy>  (723) 
923.74384215309635

>  <compound_id>  (723) 
46665

>  <target_id>  (723) 
1

>  <reference_id>  (723) 
27

>  <inspiration_ids>  (723) 
[27, 44]

>  <energy_score>  (723) 
846.1192936179017

>  <distance_score>  (723) 
7.660860023848403

>  <path>  (723) 
/opt/xchem-fragalysis-2/maxwin/BulkDock/SCRATCH/511023/C46665-P27/C46665-P27.minimised.mol

>  <scratch_subdir>  (723) 
/opt/xchem-fragalysis-2/maxwin/BulkDock/SCRATCH/511023/C46665-P27

>  <fragmenstein_runtime>  (723) 
14.529093980789185

>  <fragmenstein_outcome>  (723) 
too moved

>  <fragmenstein_mode>  (723) 
expansion

>  <fragmenstein_error>  (723) 


$$$$
C46665-P44
     RDKit          3D

 49 50  0  0  0  0  0  0  0  0999 V2000
   11.2365    5.0970   21.9551 C   0  0  0  0  0  0  0  0  0  0  0  0
   12.4173    4.4878   21.2219 C   0  0  0  0  0  0  0  0  0  0  0  0
   13.3741    3.6949   22.1435 C   0  0  0  0  0  0  0  0  0  0  0  0
   14.7952    3.8185   21.4819 C   0  0  0  0  0  0  0  0  0  0  0  0
   14.9132    3.2229   20.0698 C   0  0  0  0  0  0  0  0  0  0  0  0
   13.1337    2.1654   22.2567 C   0  0  0  0  0  0  0  0  0  0  0  0
   14.0879    1.4883   22.5227 O   0  0  0  0  0  0  0  0  0  0  0  0
   11.7916    1.7985   21.9198 N   0  0  0  0  0  0  0  0  0  0  0  0
   11.2010    0.5219   21.6983 C   0  0  0  0  0  0  0  0  0  0  0  0
   12.4866   -1.0347   21.3785 C   0  0  0  0  0  0  0  0  0  0  0  0
   11.3900   -2.7197   21.0320 C   0  0  0  0  0  0  0  0  0  0  0  0
    9.4131   -2.5607   20.3989 C   0  0  0  0  0  0  0  0  0  0  0  0
    8.0063   -0.7837   20.1715 C   0  0  0  0  0  0  0  0  0  0  0  0
    6.1055   -1.1550   21.0531 N   0  0  0  0  0  0  0  0  0  0  0  0
    5.2683   -0.6100   22.9479 C   0  0  0  0  0  0  0  0  0  0  0  0
    5.9765    0.1427   23.4924 O   0  0  0  0  0  0  0  0  0  0  0  0
    4.2789   -1.0057   23.9979 N   0  0  0  0  0  0  0  0  0  0  0  0
    3.0217   -0.4228   24.3954 C   0  0  0  0  0  0  0  0  0  0  0  0
    2.9235   -0.3967   26.1810 C   0  0  0  0  0  0  0  0  0  0  0  0
    3.6224   -1.4468   26.9365 N   0  0  0  0  0  0  0  0  0  0  0  0
    4.8892   -1.7771   26.2676 C   0  0  0  0  0  0  0  0  0  0  0  0
    4.6841   -2.1809   24.7911 C   0  0  0  0  0  0  0  0  0  0  0  0
    9.3857    0.4400   20.9500 C   0  0  0  0  0  0  0  0  0  0  0  0
   10.5611    5.5832   21.2437 H   0  0  0  0  0  0  0  0  0  0  0  0
   11.5810    5.8618   22.6598 H   0  0  0  0  0  0  0  0  0  0  0  0
   10.6563    4.3684   22.5250 H   0  0  0  0  0  0  0  0  0  0  0  0
   12.0498    3.8708   20.4000 H   0  0  0  0  0  0  0  0  0  0  0  0
   12.9488    5.3277   20.7560 H   0  0  0  0  0  0  0  0  0  0  0  0
   13.4041    4.1202   23.1526 H   0  0  0  0  0  0  0  0  0  0  0  0
   15.0758    4.8789   21.4379 H   0  0  0  0  0  0  0  0  0  0  0  0
   15.5492    3.3477   22.1255 H   0  0  0  0  0  0  0  0  0  0  0  0
   15.9490    3.3085   19.7244 H   0  0  0  0  0  0  0  0  0  0  0  0
   14.2898    3.7718   19.3601 H   0  0  0  0  0  0  0  0  0  0  0  0
   14.6443    2.1644   20.0431 H   0  0  0  0  0  0  0  0  0  0  0  0
   11.2351    2.6305   21.8390 H   0  0  0  0  0  0  0  0  0  0  0  0
   13.4910   -1.0474   21.7994 H   0  0  0  0  0  0  0  0  0  0  0  0
   11.9139   -3.6820   21.1695 H   0  0  0  0  0  0  0  0  0  0  0  0
   10.1719   -2.8602   21.6217 H   0  0  0  0  0  0  0  0  0  0  0  0
    5.5236   -1.8708   20.6369 H   0  0  0  0  0  0  0  0  0  0  0  0
    2.7422    0.6694   24.2434 H   0  0  0  0  0  0  0  0  0  0  0  0
    3.8251    0.3413   24.6721 H   0  0  0  0  0  0  0  0  0  0  0  0
    3.3594    0.5618   26.5068 H   0  0  0  0  0  0  0  0  0  0  0  0
    1.8827   -0.3325   26.5136 H   0  0  0  0  0  0  0  0  0  0  0  0
    3.0353   -2.2756   26.9782 H   0  0  0  0  0  0  0  0  0  0  0  0
    5.5814   -0.9297   26.3432 H   0  0  0  0  0  0  0  0  0  0  0  0
    5.3491   -2.6132   26.8061 H   0  0  0  0  0  0  0  0  0  0  0  0
    3.9533   -2.9859   24.7752 H   0  0  0  0  0  0  0  0  0  0  0  0
    5.6181   -2.5838   24.4177 H   0  0  0  0  0  0  0  0  0  0  0  0
    9.1495    0.7328   22.0286 H   0  0  0  0  0  0  0  0  0  0  0  0
  1  2  1  0
  2  3  1  0
  3  4  1  0
  4  5  1  0
  3  6  1  0
  6  7  2  0
  6  8  1  0
  8  9  1  0
  9 10  2  0
 10 11  1  0
 11 12  2  0
 12 13  1  0
 13 14  1  0
 14 15  1  0
 15 16  2  0
 15 17  1  0
 17 18  1  0
 18 19  1  0
 19 20  1  0
 20 21  1  0
 21 22  1  0
 13 23  2  0
 23  9  1  0
 22 17  1  0
  1 24  1  0
  1 25  1  0
  1 26  1  0
  2 27  1  0
  2 28  1  0
  3 29  1  0
  4 30  1  0
  4 31  1  0
  5 32  1  0
  5 33  1  0
  5 34  1  0
  8 35  1  0
 10 36  1  0
 11 37  1  0
 12 38  1  0
 14 39  1  0
 18 40  1  0
 18 41  1  0
 19 42  1  0
 19 43  1  0
 20 44  1  0
 21 45  1  0
 21 46  1  0
 22 47  1  0
 22 48  1  0
 23 49  1  0
M  END
>  <Energy>  (724) 
1805.1089885514691

>  <compound_id>  (724) 
46665

>  <target_id>  (724) 
1

>  <reference_id>  (724) 
44

>  <inspiration_ids>  (724) 
[27, 44]

>  <energy_score>  (724) 
1727.4844400162754

>  <distance_score>  (724) 
7.381265053329483

>  <path>  (724) 
/opt/xchem-fragalysis-2/maxwin/BulkDock/SCRATCH/511023/C46665-P44/C46665-P44.minimised.mol

>  <scratch_subdir>  (724) 
/opt/xchem-fragalysis-2/maxwin/BulkDock/SCRATCH/511023/C46665-P44

>  <fragmenstein_runtime>  (724) 
23.106775283813477

>  <fragmenstein_outcome>  (724) 
too moved

>  <fragmenstein_mode>  (724) 
expansion

>  <fragmenstein_error>  (724) 


$$$$
C46665-P27
     RDKit          3D

 49 50  0  0  0  0  0  0  0  0999 V2000
   16.2733    1.5828   17.6894 C   0  0  0  0  0  0  0  0  0  0  0  0
   15.6879    2.9671   17.9610 C   0  0  0  0  0  0  0  0  0  0  0  0
   14.2430    3.0024   18.5066 C   0  0  0  0  0  0  0  0  0  0  0  0
   13.2969    2.1052   17.6667 C   0  0  0  0  0  0  0  0  0  0  0  0
   13.2760    2.3516   16.1634 C   0  0  0  0  0  0  0  0  0  0  0  0
   14.1966    2.5876   20.0202 C   0  0  0  0  0  0  0  0  0  0  0  0
   15.1264    1.9779   20.4731 O   0  0  0  0  0  0  0  0  0  0  0  0
   12.9228    2.9565   20.6177 N   0  0  0  0  0  0  0  0  0  0  0  0
   12.3592    2.6295   21.8683 C   0  0  0  0  0  0  0  0  0  0  0  0
   13.0303    1.7291   22.6893 C   0  0  0  0  0  0  0  0  0  0  0  0
   12.3079    1.0303   23.6378 C   0  0  0  0  0  0  0  0  0  0  0  0
   10.9147    1.1682   23.6753 C   0  0  0  0  0  0  0  0  0  0  0  0
   10.1915    2.0319   22.8136 C   0  0  0  0  0  0  0  0  0  0  0  0
    8.7665    1.8323   22.9493 N   0  0  0  0  0  0  0  0  0  0  0  0
    7.5219    1.3912   21.7222 C   0  0  0  0  0  0  0  0  0  0  0  0
    7.6675    1.2731   20.5511 O   0  0  0  0  0  0  0  0  0  0  0  0
    5.7668    1.2245   22.1965 N   0  0  0  0  0  0  0  0  0  0  0  0
    4.8974    0.1524   22.5839 C   0  0  0  0  0  0  0  0  0  0  0  0
    4.1304    0.0472   24.5373 C   0  0  0  0  0  0  0  0  0  0  0  0
    3.9049   -1.2970   25.0110 N   0  0  0  0  0  0  0  0  0  0  0  0
    4.7065   -1.8460   23.9559 C   0  0  0  0  0  0  0  0  0  0  0  0
    5.3560   -0.7352   22.5847 C   0  0  0  0  0  0  0  0  0  0  0  0
   10.9750    2.9028   22.0802 C   0  0  0  0  0  0  0  0  0  0  0  0
   15.7338    1.0441   16.9074 H   0  0  0  0  0  0  0  0  0  0  0  0
   17.3101    1.6860   17.3512 H   0  0  0  0  0  0  0  0  0  0  0  0
   16.2840    0.9553   18.5837 H   0  0  0  0  0  0  0  0  0  0  0  0
   15.7273    3.5424   17.0275 H   0  0  0  0  0  0  0  0  0  0  0  0
   16.3489    3.4910   18.6632 H   0  0  0  0  0  0  0  0  0  0  0  0
   13.8977    4.0434   18.4511 H   0  0  0  0  0  0  0  0  0  0  0  0
   12.2801    2.2846   18.0031 H   0  0  0  0  0  0  0  0  0  0  0  0
   13.5060    1.0467   17.8621 H   0  0  0  0  0  0  0  0  0  0  0  0
   12.5065    1.7306   15.6933 H   0  0  0  0  0  0  0  0  0  0  0  0
   14.2287    2.1147   15.6851 H   0  0  0  0  0  0  0  0  0  0  0  0
   13.0396    3.3990   15.9499 H   0  0  0  0  0  0  0  0  0  0  0  0
   12.3386    3.4025   19.9095 H   0  0  0  0  0  0  0  0  0  0  0  0
   14.0832    1.5017   22.5586 H   0  0  0  0  0  0  0  0  0  0  0  0
   12.8022    0.3025   24.2755 H   0  0  0  0  0  0  0  0  0  0  0  0
   10.3793    0.5186   24.3668 H   0  0  0  0  0  0  0  0  0  0  0  0
    8.3820    1.7752   23.8708 H   0  0  0  0  0  0  0  0  0  0  0  0
    4.1200    1.0298   22.4781 H   0  0  0  0  0  0  0  0  0  0  0  0
    4.2265    0.2074   21.6134 H   0  0  0  0  0  0  0  0  0  0  0  0
    4.7438    0.4075   25.3992 H   0  0  0  0  0  0  0  0  0  0  0  0
    3.2208    0.6752   24.6942 H   0  0  0  0  0  0  0  0  0  0  0  0
    2.9286   -1.5672   24.8613 H   0  0  0  0  0  0  0  0  0  0  0  0
    5.5508   -2.3494   24.4131 H   0  0  0  0  0  0  0  0  0  0  0  0
    4.0052   -2.5317   23.4991 H   0  0  0  0  0  0  0  0  0  0  0  0
    5.9967   -1.3090   21.8374 H   0  0  0  0  0  0  0  0  0  0  0  0
    4.9188   -1.4693   21.8710 H   0  0  0  0  0  0  0  0  0  0  0  0
   10.5226    3.7566   21.5952 H   0  0  0  0  0  0  0  0  0  0  0  0
  1  2  1  0
  2  3  1  0
  3  4  1  0
  4  5  1  0
  3  6  1  0
  6  7  2  0
  6  8  1  0
  8  9  1  0
  9 10  2  0
 10 11  1  0
 11 12  2  0
 12 13  1  0
 13 14  1  0
 14 15  1  0
 15 16  2  0
 15 17  1  0
 17 18  1  0
 18 19  1  0
 19 20  1  0
 20 21  1  0
 21 22  1  0
 13 23  2  0
 23  9  1  0
 22 17  1  0
  1 24  1  0
  1 25  1  0
  1 26  1  0
  2 27  1  0
  2 28  1  0
  3 29  1  0
  4 30  1  0
  4 31  1  0
  5 32  1  0
  5 33  1  0
  5 34  1  0
  8 35  1  0
 10 36  1  0
 11 37  1  0
 12 38  1  0
 14 39  1  0
 18 40  1  0
 18 41  1  0
 19 42  1  0
 19 43  1  0
 20 44  1  0
 21 45  1  0
 21 46  1  0
 22 47  1  0
 22 48  1  0
 23 49  1  0
M  END
>  <Energy>  (725) 
923.74384215309635

>  <compound_id>  (725) 
46665

>  <target_id>  (725) 
1

>  <reference_id>  (725) 
27

>  <inspiration_ids>  (725) 
[27, 44]

>  <energy_score>  (725) 
846.1192936179017

>  <distance_score>  (725) 
7.660860023848403

>  <path>  (725) 
/opt/xchem-fragalysis-2/maxwin/BulkDock/SCRATCH/511023/C46665-P27/C46665-P27.minimised.mol

>  <scratch_subdir>  (725) 
/opt/xchem-fragalysis-2/maxwin/BulkDock/SCRATCH/511023/C46665-P27

>  <fragmenstein_runtime>  (725) 
14.611700773239136

>  <fragmenstein_outcome>  (725) 
too moved

>  <fragmenstein_mode>  (725) 
expansion

>  <fragmenstein_error>  (725) 


$$$$
C46665-P44
     RDKit          3D

 49 50  0  0  0  0  0  0  0  0999 V2000
   11.2365    5.0970   21.9551 C   0  0  0  0  0  0  0  0  0  0  0  0
   12.4173    4.4878   21.2219 C   0  0  0  0  0  0  0  0  0  0  0  0
   13.3741    3.6949   22.1435 C   0  0  0  0  0  0  0  0  0  0  0  0
   14.7952    3.8185   21.4819 C   0  0  0  0  0  0  0  0  0  0  0  0
   14.9132    3.2229   20.0698 C   0  0  0  0  0  0  0  0  0  0  0  0
   13.1337    2.1654   22.2567 C   0  0  0  0  0  0  0  0  0  0  0  0
   14.0879    1.4883   22.5227 O   0  0  0  0  0  0  0  0  0  0  0  0
   11.7916    1.7985   21.9198 N   0  0  0  0  0  0  0  0  0  0  0  0
   11.2010    0.5219   21.6983 C   0  0  0  0  0  0  0  0  0  0  0  0
   12.4866   -1.0347   21.3785 C   0  0  0  0  0  0  0  0  0  0  0  0
   11.3900   -2.7197   21.0320 C   0  0  0  0  0  0  0  0  0  0  0  0
    9.4131   -2.5607   20.3989 C   0  0  0  0  0  0  0  0  0  0  0  0
    8.0063   -0.7837   20.1715 C   0  0  0  0  0  0  0  0  0  0  0  0
    6.1055   -1.1550   21.0531 N   0  0  0  0  0  0  0  0  0  0  0  0
    5.2683   -0.6100   22.9479 C   0  0  0  0  0  0  0  0  0  0  0  0
    5.9765    0.1427   23.4924 O   0  0  0  0  0  0  0  0  0  0  0  0
    4.2789   -1.0057   23.9979 N   0  0  0  0  0  0  0  0  0  0  0  0
    3.0217   -0.4228   24.3954 C   0  0  0  0  0  0  0  0  0  0  0  0
    2.9235   -0.3967   26.1810 C   0  0  0  0  0  0  0  0  0  0  0  0
    3.6224   -1.4468   26.9365 N   0  0  0  0  0  0  0  0  0  0  0  0
    4.8892   -1.7771   26.2676 C   0  0  0  0  0  0  0  0  0  0  0  0
    4.6841   -2.1809   24.7911 C   0  0  0  0  0  0  0  0  0  0  0  0
    9.3857    0.4400   20.9500 C   0  0  0  0  0  0  0  0  0  0  0  0
   10.5611    5.5832   21.2437 H   0  0  0  0  0  0  0  0  0  0  0  0
   11.5810    5.8618   22.6598 H   0  0  0  0  0  0  0  0  0  0  0  0
   10.6563    4.3684   22.5250 H   0  0  0  0  0  0  0  0  0  0  0  0
   12.0498    3.8708   20.4000 H   0  0  0  0  0  0  0  0  0  0  0  0
   12.9488    5.3277   20.7560 H   0  0  0  0  0  0  0  0  0  0  0  0
   13.4041    4.1202   23.1526 H   0  0  0  0  0  0  0  0  0  0  0  0
   15.0758    4.8789   21.4379 H   0  0  0  0  0  0  0  0  0  0  0  0
   15.5492    3.3477   22.1255 H   0  0  0  0  0  0  0  0  0  0  0  0
   15.9490    3.3085   19.7244 H   0  0  0  0  0  0  0  0  0  0  0  0
   14.2898    3.7718   19.3601 H   0  0  0  0  0  0  0  0  0  0  0  0
   14.6443    2.1644   20.0431 H   0  0  0  0  0  0  0  0  0  0  0  0
   11.2351    2.6305   21.8390 H   0  0  0  0  0  0  0  0  0  0  0  0
   13.4910   -1.0474   21.7994 H   0  0  0  0  0  0  0  0  0  0  0  0
   11.9139   -3.6820   21.1695 H   0  0  0  0  0  0  0  0  0  0  0  0
   10.1719   -2.8602   21.6217 H   0  0  0  0  0  0  0  0  0  0  0  0
    5.5236   -1.8708   20.6369 H   0  0  0  0  0  0  0  0  0  0  0  0
    2.7422    0.6694   24.2434 H   0  0  0  0  0  0  0  0  0  0  0  0
    3.8251    0.3413   24.6721 H   0  0  0  0  0  0  0  0  0  0  0  0
    3.3594    0.5618   26.5068 H   0  0  0  0  0  0  0  0  0  0  0  0
    1.8827   -0.3325   26.5136 H   0  0  0  0  0  0  0  0  0  0  0  0
    3.0353   -2.2756   26.9782 H   0  0  0  0  0  0  0  0  0  0  0  0
    5.5814   -0.9297   26.3432 H   0  0  0  0  0  0  0  0  0  0  0  0
    5.3491   -2.6132   26.8061 H   0  0  0  0  0  0  0  0  0  0  0  0
    3.9533   -2.9859   24.7752 H   0  0  0  0  0  0  0  0  0  0  0  0
    5.6181   -2.5838   24.4177 H   0  0  0  0  0  0  0  0  0  0  0  0
    9.1495    0.7328   22.0286 H   0  0  0  0  0  0  0  0  0  0  0  0
  1  2  1  0
  2  3  1  0
  3  4  1  0
  4  5  1  0
  3  6  1  0
  6  7  2  0
  6  8  1  0
  8  9  1  0
  9 10  2  0
 10 11  1  0
 11 12  2  0
 12 13  1  0
 13 14  1  0
 14 15  1  0
 15 16  2  0
 15 17  1  0
 17 18  1  0
 18 19  1  0
 19 20  1  0
 20 21  1  0
 21 22  1  0
 13 23  2  0
 23  9  1  0
 22 17  1  0
  1 24  1  0
  1 25  1  0
  1 26  1  0
  2 27  1  0
  2 28  1  0
  3 29  1  0
  4 30  1  0
  4 31  1  0
  5 32  1  0
  5 33  1  0
  5 34  1  0
  8 35  1  0
 10 36  1  0
 11 37  1  0
 12 38  1  0
 14 39  1  0
 18 40  1  0
 18 41  1  0
 19 42  1  0
 19 43  1  0
 20 44  1  0
 21 45  1  0
 21 46  1  0
 22 47  1  0
 22 48  1  0
 23 49  1  0
M  END
>  <Energy>  (726) 
1805.1089885514691

>  <compound_id>  (726) 
46665

>  <target_id>  (726) 
1

>  <reference_id>  (726) 
44

>  <inspiration_ids>  (726) 
[27, 44]

>  <energy_score>  (726) 
1727.4844400162754

>  <distance_score>  (726) 
7.381265053329483

>  <path>  (726) 
/opt/xchem-fragalysis-2/maxwin/BulkDock/SCRATCH/511023/C46665-P44/C46665-P44.minimised.mol

>  <scratch_subdir>  (726) 
/opt/xchem-fragalysis-2/maxwin/BulkDock/SCRATCH/511023/C46665-P44

>  <fragmenstein_runtime>  (726) 
13.073543071746826

>  <fragmenstein_outcome>  (726) 
too moved

>  <fragmenstein_mode>  (726) 
expansion

>  <fragmenstein_error>  (726) 


$$$$
C46667-P27
     RDKit          3D

 57 59  0  0  0  0  0  0  0  0999 V2000
   14.3457    3.0073   17.2526 C   0  0  0  0  0  0  0  0  0  0  0  0
   13.7484    2.4227   18.5268 C   0  0  0  0  0  0  0  0  0  0  0  0
   14.7672    1.6939   19.4238 C   0  0  0  0  0  0  0  0  0  0  0  0
   15.4856    0.5475   18.6491 C   0  0  0  0  0  0  0  0  0  0  0  0
   14.5910   -0.4933   17.9767 C   0  0  0  0  0  0  0  0  0  0  0  0
   14.2048    1.2026   20.8113 C   0  0  0  0  0  0  0  0  0  0  0  0
   14.3553    0.0515   21.1034 O   0  0  0  0  0  0  0  0  0  0  0  0
   13.5815    2.2864   21.5394 N   0  0  0  0  0  0  0  0  0  0  0  0
   13.0254    2.3397   22.8999 C   0  0  0  0  0  0  0  0  0  0  0  0
   11.9657    1.2587   23.1499 C   0  0  0  0  0  0  0  0  0  0  0  0
   10.7107    1.7021   23.9267 C   0  0  0  0  0  0  0  0  0  0  0  0
   10.9896    2.6657   25.0903 C   0  0  0  0  0  0  0  0  0  0  0  0
    9.7471    3.1120   25.7764 N   0  0  0  0  0  0  0  0  0  0  0  0
    8.8190    2.3916   26.6205 C   0  0  0  0  0  0  0  0  0  0  0  0
    8.7732    1.2309   26.9181 O   0  0  0  0  0  0  0  0  0  0  0  0
    7.6922    3.3038   27.2279 C   0  0  0  0  0  0  0  0  0  0  0  0
    6.9534    4.3305   26.3433 C   0  0  0  0  0  0  0  0  0  0  0  0
    5.5752    4.4188   27.0125 C   0  0  0  0  0  0  0  0  0  0  0  0
    5.7107    3.6144   28.2518 N   0  0  0  0  0  0  0  0  0  0  0  0
    6.6779    4.2898   29.1583 C   0  0  0  0  0  0  0  0  0  0  0  0
    8.0596    4.0374   28.5243 C   0  0  0  0  0  0  0  0  0  0  0  0
    6.5157    2.4609   27.7774 C   0  0  0  0  0  0  0  0  0  0  0  0
   11.8751    3.8366   24.6246 C   0  0  0  0  0  0  0  0  0  0  0  0
   12.4446    3.7178   23.1993 C   0  0  0  0  0  0  0  0  0  0  0  0
   15.1948    3.6589   17.4813 H   0  0  0  0  0  0  0  0  0  0  0  0
   14.6803    2.2282   16.5621 H   0  0  0  0  0  0  0  0  0  0  0  0
   13.5930    3.6057   16.7286 H   0  0  0  0  0  0  0  0  0  0  0  0
   13.2852    3.2489   19.0739 H   0  0  0  0  0  0  0  0  0  0  0  0
   12.9365    1.7533   18.2424 H   0  0  0  0  0  0  0  0  0  0  0  0
   15.5523    2.4159   19.6935 H   0  0  0  0  0  0  0  0  0  0  0  0
   16.1294    0.9919   17.8801 H   0  0  0  0  0  0  0  0  0  0  0  0
   16.1693    0.0252   19.3305 H   0  0  0  0  0  0  0  0  0  0  0  0
   15.2102   -1.1990   17.4127 H   0  0  0  0  0  0  0  0  0  0  0  0
   14.0438   -1.0701   18.7224 H   0  0  0  0  0  0  0  0  0  0  0  0
   13.8814   -0.0479   17.2759 H   0  0  0  0  0  0  0  0  0  0  0  0
   13.7083    3.1471   21.0228 H   0  0  0  0  0  0  0  0  0  0  0  0
   13.8729    2.1545   23.5714 H   0  0  0  0  0  0  0  0  0  0  0  0
   12.4362    0.4186   23.6751 H   0  0  0  0  0  0  0  0  0  0  0  0
   11.6163    0.8787   22.1931 H   0  0  0  0  0  0  0  0  0  0  0  0
   10.0145    2.1861   23.2286 H   0  0  0  0  0  0  0  0  0  0  0  0
   10.1900    0.8125   24.2999 H   0  0  0  0  0  0  0  0  0  0  0  0
   11.5401    2.0981   25.8519 H   0  0  0  0  0  0  0  0  0  0  0  0
    9.4329    4.0699   25.6829 H   0  0  0  0  0  0  0  0  0  0  0  0
    6.8777    4.0565   25.2910 H   0  0  0  0  0  0  0  0  0  0  0  0
    7.4577    5.3046   26.3657 H   0  0  0  0  0  0  0  0  0  0  0  0
    5.2764    5.4525   27.2179 H   0  0  0  0  0  0  0  0  0  0  0  0
    4.8056    3.9777   26.3681 H   0  0  0  0  0  0  0  0  0  0  0  0
    6.4613    5.3578   29.2732 H   0  0  0  0  0  0  0  0  0  0  0  0
    6.6310    3.8377   30.1559 H   0  0  0  0  0  0  0  0  0  0  0  0
    8.6045    4.9694   28.3404 H   0  0  0  0  0  0  0  0  0  0  0  0
    8.6777    3.4090   29.1767 H   0  0  0  0  0  0  0  0  0  0  0  0
    5.9705    1.8665   27.0397 H   0  0  0  0  0  0  0  0  0  0  0  0
    6.7945    1.7882   28.5995 H   0  0  0  0  0  0  0  0  0  0  0  0
   11.3273    4.7848   24.6921 H   0  0  0  0  0  0  0  0  0  0  0  0
   12.7126    3.9319   25.3282 H   0  0  0  0  0  0  0  0  0  0  0  0
   11.6526    3.9511   22.4748 H   0  0  0  0  0  0  0  0  0  0  0  0
   13.2135    4.4881   23.0592 H   0  0  0  0  0  0  0  0  0  0  0  0
  1  2  1  0
  2  3  1  0
  3  4  1  0
  4  5  1  0
  3  6  1  0
  6  7  2  0
  6  8  1  0
  8  9  1  0
  9 10  1  0
 10 11  1  0
 11 12  1  0
 12 13  1  0
 13 14  1  0
 14 15  2  0
 14 16  1  0
 16 17  1  0
 17 18  1  0
 18 19  1  0
 19 20  1  0
 20 21  1  0
 19 22  1  0
 12 23  1  0
 23 24  1  0
 24  9  1  0
 21 16  1  0
 22 16  1  0
  1 25  1  0
  1 26  1  0
  1 27  1  0
  2 28  1  0
  2 29  1  0
  3 30  1  0
  4 31  1  0
  4 32  1  0
  5 33  1  0
  5 34  1  0
  5 35  1  0
  8 36  1  0
  9 37  1  0
 10 38  1  0
 10 39  1  0
 11 40  1  0
 11 41  1  0
 12 42  1  0
 13 43  1  0
 17 44  1  0
 17 45  1  0
 18 46  1  0
 18 47  1  0
 20 48  1  0
 20 49  1  0
 21 50  1  0
 21 51  1  0
 22 52  1  0
 22 53  1  0
 23 54  1  0
 23 55  1  0
 24 56  1  0
 24 57  1  0
M  END
>  <Energy>  (727) 
19.86925352110913

>  <compound_id>  (727) 
46667

>  <target_id>  (727) 
1

>  <reference_id>  (727) 
27

>  <inspiration_ids>  (727) 
[27, 44]

>  <energy_score>  (727) 
-14.316477743915812

>  <distance_score>  (727) 
8.033041208863892

>  <path>  (727) 
/opt/xchem-fragalysis-2/maxwin/BulkDock/SCRATCH/511023/C46667-P27/C46667-P27.minimised.mol

>  <scratch_subdir>  (727) 
/opt/xchem-fragalysis-2/maxwin/BulkDock/SCRATCH/511023/C46667-P27

>  <fragmenstein_runtime>  (727) 
18.215705633163452

>  <fragmenstein_outcome>  (727) 
too moved

>  <fragmenstein_mode>  (727) 
expansion

>  <fragmenstein_error>  (727) 


$$$$
C46667-P44
     RDKit          3D

 57 59  0  0  0  0  0  0  0  0999 V2000
   15.9699   -1.4663   19.2920 C   0  0  0  0  0  0  0  0  0  0  0  0
   15.0213   -1.9655   20.3771 C   0  0  0  0  0  0  0  0  0  0  0  0
   14.8767   -3.5083   20.5198 C   0  0  0  0  0  0  0  0  0  0  0  0
   14.7804   -4.2135   19.1345 C   0  0  0  0  0  0  0  0  0  0  0  0
   13.6531   -3.7645   18.2048 C   0  0  0  0  0  0  0  0  0  0  0  0
   13.6883   -3.9312   21.4725 C   0  0  0  0  0  0  0  0  0  0  0  0
   12.8769   -4.7111   21.0674 O   0  0  0  0  0  0  0  0  0  0  0  0
   13.7433   -3.1897   22.7061 N   0  0  0  0  0  0  0  0  0  0  0  0
   12.7913   -3.0818   23.7923 C   0  0  0  0  0  0  0  0  0  0  0  0
   13.0494   -1.8339   24.6457 C   0  0  0  0  0  0  0  0  0  0  0  0
   11.9325   -1.5643   25.6792 C   0  0  0  0  0  0  0  0  0  0  0  0
   10.7646   -2.5506   25.5463 C   0  0  0  0  0  0  0  0  0  0  0  0
    9.5393   -2.2136   26.2990 N   0  0  0  0  0  0  0  0  0  0  0  0
    8.7645   -0.9878   26.3540 C   0  0  0  0  0  0  0  0  0  0  0  0
    8.9692    0.0896   25.8633 O   0  0  0  0  0  0  0  0  0  0  0  0
    7.3896   -1.1177   27.1062 C   0  0  0  0  0  0  0  0  0  0  0  0
    6.4446    0.1021   26.8513 C   0  0  0  0  0  0  0  0  0  0  0  0
    5.0618   -0.4364   27.2195 C   0  0  0  0  0  0  0  0  0  0  0  0
    5.3349   -1.8271   27.6637 N   0  0  0  0  0  0  0  0  0  0  0  0
    6.0428   -1.7547   28.9697 C   0  0  0  0  0  0  0  0  0  0  0  0
    7.4666   -1.2991   28.6232 C   0  0  0  0  0  0  0  0  0  0  0  0
    6.4307   -2.2384   26.7299 C   0  0  0  0  0  0  0  0  0  0  0  0
   11.3037   -3.9995   25.6484 C   0  0  0  0  0  0  0  0  0  0  0  0
   12.5301   -4.2779   24.7073 C   0  0  0  0  0  0  0  0  0  0  0  0
   16.9615   -1.9149   19.4091 H   0  0  0  0  0  0  0  0  0  0  0  0
   15.6073   -1.6838   18.2849 H   0  0  0  0  0  0  0  0  0  0  0  0
   16.0820   -0.3795   19.3683 H   0  0  0  0  0  0  0  0  0  0  0  0
   15.3905   -1.5531   21.3236 H   0  0  0  0  0  0  0  0  0  0  0  0
   14.0451   -1.5068   20.2260 H   0  0  0  0  0  0  0  0  0  0  0  0
   15.7871   -3.8903   21.0028 H   0  0  0  0  0  0  0  0  0  0  0  0
   15.7335   -4.0809   18.6078 H   0  0  0  0  0  0  0  0  0  0  0  0
   14.6840   -5.2949   19.2937 H   0  0  0  0  0  0  0  0  0  0  0  0
   13.8066   -4.1855   17.2059 H   0  0  0  0  0  0  0  0  0  0  0  0
   12.6919   -4.1313   18.5613 H   0  0  0  0  0  0  0  0  0  0  0  0
   13.5919   -2.6797   18.1023 H   0  0  0  0  0  0  0  0  0  0  0  0
   14.6181   -2.6863   22.7491 H   0  0  0  0  0  0  0  0  0  0  0  0
   11.8605   -2.9833   23.2350 H   0  0  0  0  0  0  0  0  0  0  0  0
   13.1674   -0.9512   24.0053 H   0  0  0  0  0  0  0  0  0  0  0  0
   14.0069   -1.9365   25.1731 H   0  0  0  0  0  0  0  0  0  0  0  0
   12.3476   -1.6187   26.6933 H   0  0  0  0  0  0  0  0  0  0  0  0
   11.5795   -0.5341   25.5541 H   0  0  0  0  0  0  0  0  0  0  0  0
   10.4100   -2.4357   24.5272 H   0  0  0  0  0  0  0  0  0  0  0  0
    9.0225   -2.9519   26.7611 H   0  0  0  0  0  0  0  0  0  0  0  0
    6.4526    0.4093   25.8012 H   0  0  0  0  0  0  0  0  0  0  0  0
    6.7243    0.9684   27.4611 H   0  0  0  0  0  0  0  0  0  0  0  0
    4.5650    0.1628   27.9902 H   0  0  0  0  0  0  0  0  0  0  0  0
    4.4058   -0.4496   26.3409 H   0  0  0  0  0  0  0  0  0  0  0  0
    6.0670   -2.7507   29.4273 H   0  0  0  0  0  0  0  0  0  0  0  0
    5.5476   -1.0841   29.6808 H   0  0  0  0  0  0  0  0  0  0  0  0
    8.1971   -2.0677   28.9001 H   0  0  0  0  0  0  0  0  0  0  0  0
    7.7385   -0.3724   29.1397 H   0  0  0  0  0  0  0  0  0  0  0  0
    6.0944   -2.2184   25.6883 H   0  0  0  0  0  0  0  0  0  0  0  0
    6.7992   -3.2450   26.9589 H   0  0  0  0  0  0  0  0  0  0  0  0
   11.5887   -4.2186   26.6846 H   0  0  0  0  0  0  0  0  0  0  0  0
   10.4985   -4.7017   25.4020 H   0  0  0  0  0  0  0  0  0  0  0  0
   13.4176   -4.4899   25.3157 H   0  0  0  0  0  0  0  0  0  0  0  0
   12.3383   -5.1818   24.1178 H   0  0  0  0  0  0  0  0  0  0  0  0
  1  2  1  0
  2  3  1  0
  3  4  1  0
  4  5  1  0
  3  6  1  0
  6  7  2  0
  6  8  1  0
  8  9  1  0
  9 10  1  0
 10 11  1  0
 11 12  1  0
 12 13  1  0
 13 14  1  0
 14 15  2  0
 14 16  1  0
 16 17  1  0
 17 18  1  0
 18 19  1  0
 19 20  1  0
 20 21  1  0
 19 22  1  0
 12 23  1  0
 23 24  1  0
 24  9  1  0
 21 16  1  0
 22 16  1  0
  1 25  1  0
  1 26  1  0
  1 27  1  0
  2 28  1  0
  2 29  1  0
  3 30  1  0
  4 31  1  0
  4 32  1  0
  5 33  1  0
  5 34  1  0
  5 35  1  0
  8 36  1  0
  9 37  1  0
 10 38  1  0
 10 39  1  0
 11 40  1  0
 11 41  1  0
 12 42  1  0
 13 43  1  0
 17 44  1  0
 17 45  1  0
 18 46  1  0
 18 47  1  0
 20 48  1  0
 20 49  1  0
 21 50  1  0
 21 51  1  0
 22 52  1  0
 22 53  1  0
 23 54  1  0
 23 55  1  0
 24 56  1  0
 24 57  1  0
M  END
>  <Energy>  (728) 
28.740179086629706

>  <compound_id>  (728) 
46667

>  <target_id>  (728) 
1

>  <reference_id>  (728) 
44

>  <inspiration_ids>  (728) 
[27, 44]

>  <energy_score>  (728) 
-5.44555217839644

>  <distance_score>  (728) 
7.261286372555391

>  <path>  (728) 
/opt/xchem-fragalysis-2/maxwin/BulkDock/SCRATCH/511023/C46667-P44/C46667-P44.minimised.mol

>  <scratch_subdir>  (728) 
/opt/xchem-fragalysis-2/maxwin/BulkDock/SCRATCH/511023/C46667-P44

>  <fragmenstein_runtime>  (728) 
17.489899158477783

>  <fragmenstein_outcome>  (728) 
too moved

>  <fragmenstein_mode>  (728) 
expansion

>  <fragmenstein_error>  (728) 


$$$$
C46668-P27
     RDKit          3D

 60 62  0  0  0  0  0  0  0  0999 V2000
   15.4203    1.9377   17.4097 C   0  0  0  0  0  0  0  0  0  0  0  0
   16.1305    1.4041   18.6514 C   0  0  0  0  0  0  0  0  0  0  0  0
   15.3197    0.5826   19.6818 C   0  0  0  0  0  0  0  0  0  0  0  0
   14.7951   -0.7771   19.1563 C   0  0  0  0  0  0  0  0  0  0  0  0
   14.0769   -0.8144   17.8120 C   0  0  0  0  0  0  0  0  0  0  0  0
   14.2666    1.4585   20.4395 C   0  0  0  0  0  0  0  0  0  0  0  0
   13.9095    2.4829   19.9351 O   0  0  0  0  0  0  0  0  0  0  0  0
   13.8573    0.8221   21.6696 N   0  0  0  0  0  0  0  0  0  0  0  0
   12.8166    1.1760   22.6297 C   0  0  0  0  0  0  0  0  0  0  0  0
   12.7105    2.6714   22.9264 C   0  0  0  0  0  0  0  0  0  0  0  0
   11.7165    2.9901   24.0674 C   0  0  0  0  0  0  0  0  0  0  0  0
   10.7983    1.8144   24.4378 C   0  0  0  0  0  0  0  0  0  0  0  0
    9.7745    2.1543   25.4415 N   0  0  0  0  0  0  0  0  0  0  0  0
    8.4829    2.8180   25.3021 C   0  0  0  0  0  0  0  0  0  0  0  0
    7.9641    3.3259   24.3440 O   0  0  0  0  0  0  0  0  0  0  0  0
    7.6578    2.8909   26.7114 C   0  0  0  0  0  0  0  0  0  0  0  0
    7.9482    1.7915   27.7356 C   0  0  0  0  0  0  0  0  0  0  0  0
    6.6289    1.5502   28.4527 C   0  0  0  0  0  0  0  0  0  0  0  0
    5.6335    1.6645   27.3261 C   0  0  0  0  0  0  0  0  0  0  0  0
    6.1546    2.7540   26.4827 N   0  0  0  0  0  0  0  0  0  0  0  0
    5.5050    4.0282   26.8231 C   0  0  0  0  0  0  0  0  0  0  0  0
    6.6050    5.0585   26.7367 C   0  0  0  0  0  0  0  0  0  0  0  0
    7.8206    4.3121   27.2706 C   0  0  0  0  0  0  0  0  0  0  0  0
   11.6637    0.5981   24.8341 C   0  0  0  0  0  0  0  0  0  0  0  0
   12.9124    0.3956   23.9448 C   0  0  0  0  0  0  0  0  0  0  0  0
   14.3848    2.2299   17.5927 H   0  0  0  0  0  0  0  0  0  0  0  0
   15.4389    1.2128   16.5932 H   0  0  0  0  0  0  0  0  0  0  0  0
   15.9526    2.8210   17.0386 H   0  0  0  0  0  0  0  0  0  0  0  0
   16.9952    0.8118   18.3262 H   0  0  0  0  0  0  0  0  0  0  0  0
   16.5470    2.2714   19.1820 H   0  0  0  0  0  0  0  0  0  0  0  0
   16.0517    0.3282   20.4654 H   0  0  0  0  0  0  0  0  0  0  0  0
   15.6534   -1.4581   19.0794 H   0  0  0  0  0  0  0  0  0  0  0  0
   14.1408   -1.2244   19.9111 H   0  0  0  0  0  0  0  0  0  0  0  0
   14.7875   -0.7432   16.9855 H   0  0  0  0  0  0  0  0  0  0  0  0
   13.5680   -1.7764   17.6876 H   0  0  0  0  0  0  0  0  0  0  0  0
   13.3337   -0.0188   17.7248 H   0  0  0  0  0  0  0  0  0  0  0  0
   14.3106   -0.0812   21.7414 H   0  0  0  0  0  0  0  0  0  0  0  0
   11.8846    0.9032   22.1325 H   0  0  0  0  0  0  0  0  0  0  0  0
   12.3854    3.1995   22.0216 H   0  0  0  0  0  0  0  0  0  0  0  0
   13.6941    3.0863   23.1802 H   0  0  0  0  0  0  0  0  0  0  0  0
   11.1161    3.8644   23.7867 H   0  0  0  0  0  0  0  0  0  0  0  0
   12.2832    3.2945   24.9574 H   0  0  0  0  0  0  0  0  0  0  0  0
   10.2225    1.5589   23.5402 H   0  0  0  0  0  0  0  0  0  0  0  0
    9.9217    1.9194   26.4133 H   0  0  0  0  0  0  0  0  0  0  0  0
    8.2470    0.8594   27.2400 H   0  0  0  0  0  0  0  0  0  0  0  0
    8.7402    2.0642   28.4409 H   0  0  0  0  0  0  0  0  0  0  0  0
    6.4569    2.3199   29.2140 H   0  0  0  0  0  0  0  0  0  0  0  0
    6.6001    0.5710   28.9393 H   0  0  0  0  0  0  0  0  0  0  0  0
    4.6074    1.8214   27.6762 H   0  0  0  0  0  0  0  0  0  0  0  0
    5.6299    0.7336   26.7494 H   0  0  0  0  0  0  0  0  0  0  0  0
    5.1032    4.0319   27.8446 H   0  0  0  0  0  0  0  0  0  0  0  0
    4.6835    4.2494   26.1351 H   0  0  0  0  0  0  0  0  0  0  0  0
    6.3853    5.9549   27.3244 H   0  0  0  0  0  0  0  0  0  0  0  0
    6.7699    5.3654   25.6973 H   0  0  0  0  0  0  0  0  0  0  0  0
    8.7488    4.7974   26.9516 H   0  0  0  0  0  0  0  0  0  0  0  0
    7.7963    4.3187   28.3672 H   0  0  0  0  0  0  0  0  0  0  0  0
   11.0415   -0.3030   24.8051 H   0  0  0  0  0  0  0  0  0  0  0  0
   11.9910    0.6942   25.8774 H   0  0  0  0  0  0  0  0  0  0  0  0
   13.8012    0.7314   24.4958 H   0  0  0  0  0  0  0  0  0  0  0  0
   13.0661   -0.6751   23.7716 H   0  0  0  0  0  0  0  0  0  0  0  0
  1  2  1  0
  2  3  1  0
  3  4  1  0
  4  5  1  0
  3  6  1  0
  6  7  2  0
  6  8  1  0
  8  9  1  0
  9 10  1  0
 10 11  1  0
 11 12  1  0
 12 13  1  0
 13 14  1  0
 14 15  2  0
 14 16  1  0
 16 17  1  0
 17 18  1  0
 18 19  1  0
 19 20  1  0
 20 21  1  0
 21 22  1  0
 22 23  1  0
 12 24  1  0
 24 25  1  0
 25  9  1  0
 20 16  1  0
 23 16  1  0
  1 26  1  0
  1 27  1  0
  1 28  1  0
  2 29  1  0
  2 30  1  0
  3 31  1  0
  4 32  1  0
  4 33  1  0
  5 34  1  0
  5 35  1  0
  5 36  1  0
  8 37  1  0
  9 38  1  0
 10 39  1  0
 10 40  1  0
 11 41  1  0
 11 42  1  0
 12 43  1  0
 13 44  1  0
 17 45  1  0
 17 46  1  0
 18 47  1  0
 18 48  1  0
 19 49  1  0
 19 50  1  0
 21 51  1  0
 21 52  1  0
 22 53  1  0
 22 54  1  0
 23 55  1  0
 23 56  1  0
 24 57  1  0
 24 58  1  0
 25 59  1  0
 25 60  1  0
M  END
>  <Energy>  (729) 
65.573755291261875

>  <compound_id>  (729) 
46668

>  <target_id>  (729) 
1

>  <reference_id>  (729) 
27

>  <inspiration_ids>  (729) 
[27, 44]

>  <energy_score>  (729) 
-27.001081481143046

>  <distance_score>  (729) 
7.631366606374315

>  <path>  (729) 
/opt/xchem-fragalysis-2/maxwin/BulkDock/SCRATCH/511023/C46668-P27/C46668-P27.minimised.mol

>  <scratch_subdir>  (729) 
/opt/xchem-fragalysis-2/maxwin/BulkDock/SCRATCH/511023/C46668-P27

>  <fragmenstein_runtime>  (729) 
33.772881269454956

>  <fragmenstein_outcome>  (729) 
too moved

>  <fragmenstein_mode>  (729) 
expansion

>  <fragmenstein_error>  (729) 


$$$$
C46668-P44
     RDKit          3D

 60 62  0  0  0  0  0  0  0  0999 V2000
   14.8060   -1.3423   20.5151 C   0  0  0  0  0  0  0  0  0  0  0  0
   15.6531   -2.5670   20.8028 C   0  0  0  0  0  0  0  0  0  0  0  0
   14.9424   -3.9396   20.8152 C   0  0  0  0  0  0  0  0  0  0  0  0
   14.7809   -4.5274   19.3765 C   0  0  0  0  0  0  0  0  0  0  0  0
   13.9658   -3.7320   18.3621 C   0  0  0  0  0  0  0  0  0  0  0  0
   13.6260   -4.0791   21.6542 C   0  0  0  0  0  0  0  0  0  0  0  0
   12.7115   -4.6663   21.1544 O   0  0  0  0  0  0  0  0  0  0  0  0
   13.7246   -3.3988   22.9162 N   0  0  0  0  0  0  0  0  0  0  0  0
   12.7266   -3.1296   23.9284 C   0  0  0  0  0  0  0  0  0  0  0  0
   12.9569   -1.8167   24.6796 C   0  0  0  0  0  0  0  0  0  0  0  0
   11.7299   -1.4136   25.5369 C   0  0  0  0  0  0  0  0  0  0  0  0
   10.6491   -2.5067   25.5771 C   0  0  0  0  0  0  0  0  0  0  0  0
    9.3870   -2.1705   26.2494 N   0  0  0  0  0  0  0  0  0  0  0  0
    9.1292   -1.5368   27.5193 C   0  0  0  0  0  0  0  0  0  0  0  0
    9.8816   -1.1927   28.3890 O   0  0  0  0  0  0  0  0  0  0  0  0
    7.5364   -1.3765   27.7627 C   0  0  0  0  0  0  0  0  0  0  0  0
    7.2015   -0.3172   28.8481 C   0  0  0  0  0  0  0  0  0  0  0  0
    6.1633    0.6148   28.2412 C   0  0  0  0  0  0  0  0  0  0  0  0
    6.4702    0.5170   26.7663 C   0  0  0  0  0  0  0  0  0  0  0  0
    6.8058   -0.8987   26.5258 N   0  0  0  0  0  0  0  0  0  0  0  0
    5.5760   -1.7130   26.3782 C   0  0  0  0  0  0  0  0  0  0  0  0
    5.4532   -2.5779   27.6156 C   0  0  0  0  0  0  0  0  0  0  0  0
    6.8941   -2.7345   28.0697 C   0  0  0  0  0  0  0  0  0  0  0  0
   11.2885   -3.8677   25.9160 C   0  0  0  0  0  0  0  0  0  0  0  0
   12.4375   -4.2520   24.9307 C   0  0  0  0  0  0  0  0  0  0  0  0
   13.9975   -1.2278   21.2403 H   0  0  0  0  0  0  0  0  0  0  0  0
   15.4241   -0.4399   20.5676 H   0  0  0  0  0  0  0  0  0  0  0  0
   14.3862   -1.3903   19.5172 H   0  0  0  0  0  0  0  0  0  0  0  0
   16.4765   -2.5999   20.0777 H   0  0  0  0  0  0  0  0  0  0  0  0
   16.1381   -2.4119   21.7747 H   0  0  0  0  0  0  0  0  0  0  0  0
   15.6365   -4.6310   21.3184 H   0  0  0  0  0  0  0  0  0  0  0  0
   15.7810   -4.6897   18.9539 H   0  0  0  0  0  0  0  0  0  0  0  0
   14.3334   -5.5249   19.4621 H   0  0  0  0  0  0  0  0  0  0  0  0
   13.0172   -3.3961   18.7795 H   0  0  0  0  0  0  0  0  0  0  0  0
   14.5267   -2.8683   17.9963 H   0  0  0  0  0  0  0  0  0  0  0  0
   13.7440   -4.3545   17.4895 H   0  0  0  0  0  0  0  0  0  0  0  0
   14.6763   -3.0856   23.0480 H   0  0  0  0  0  0  0  0  0  0  0  0
   11.8238   -3.0552   23.3197 H   0  0  0  0  0  0  0  0  0  0  0  0
   13.8337   -1.9174   25.3326 H   0  0  0  0  0  0  0  0  0  0  0  0
   13.2021   -1.0032   23.9867 H   0  0  0  0  0  0  0  0  0  0  0  0
   12.0638   -1.1726   26.5532 H   0  0  0  0  0  0  0  0  0  0  0  0
   11.2960   -0.4893   25.1355 H   0  0  0  0  0  0  0  0  0  0  0  0
   10.3076   -2.6089   24.5538 H   0  0  0  0  0  0  0  0  0  0  0  0
    8.4941   -2.3935   25.8010 H   0  0  0  0  0  0  0  0  0  0  0  0
    8.0850    0.2794   29.1034 H   0  0  0  0  0  0  0  0  0  0  0  0
    6.8296   -0.7580   29.7791 H   0  0  0  0  0  0  0  0  0  0  0  0
    5.1492    0.2649   28.4618 H   0  0  0  0  0  0  0  0  0  0  0  0
    6.2584    1.6365   28.6207 H   0  0  0  0  0  0  0  0  0  0  0  0
    5.6524    0.8840   26.1371 H   0  0  0  0  0  0  0  0  0  0  0  0
    7.3518    1.1259   26.5300 H   0  0  0  0  0  0  0  0  0  0  0  0
    5.7052   -2.3582   25.5029 H   0  0  0  0  0  0  0  0  0  0  0  0
    4.6656   -1.1294   26.2008 H   0  0  0  0  0  0  0  0  0  0  0  0
    4.8619   -2.0754   28.3887 H   0  0  0  0  0  0  0  0  0  0  0  0
    4.9836   -3.5432   27.4039 H   0  0  0  0  0  0  0  0  0  0  0  0
    7.3705   -3.5425   27.5009 H   0  0  0  0  0  0  0  0  0  0  0  0
    6.9566   -3.0047   29.1289 H   0  0  0  0  0  0  0  0  0  0  0  0
   10.5234   -4.6535   25.8955 H   0  0  0  0  0  0  0  0  0  0  0  0
   11.6780   -3.8476   26.9412 H   0  0  0  0  0  0  0  0  0  0  0  0
   12.1629   -5.1685   24.3945 H   0  0  0  0  0  0  0  0  0  0  0  0
   13.3412   -4.4954   25.5027 H   0  0  0  0  0  0  0  0  0  0  0  0
  1  2  1  0
  2  3  1  0
  3  4  1  0
  4  5  1  0
  3  6  1  0
  6  7  2  0
  6  8  1  0
  8  9  1  0
  9 10  1  0
 10 11  1  0
 11 12  1  0
 12 13  1  0
 13 14  1  0
 14 15  2  0
 14 16  1  0
 16 17  1  0
 17 18  1  0
 18 19  1  0
 19 20  1  0
 20 21  1  0
 21 22  1  0
 22 23  1  0
 12 24  1  0
 24 25  1  0
 25  9  1  0
 20 16  1  0
 23 16  1  0
  1 26  1  0
  1 27  1  0
  1 28  1  0
  2 29  1  0
  2 30  1  0
  3 31  1  0
  4 32  1  0
  4 33  1  0
  5 34  1  0
  5 35  1  0
  5 36  1  0
  8 37  1  0
  9 38  1  0
 10 39  1  0
 10 40  1  0
 11 41  1  0
 11 42  1  0
 12 43  1  0
 13 44  1  0
 17 45  1  0
 17 46  1  0
 18 47  1  0
 18 48  1  0
 19 49  1  0
 19 50  1  0
 21 51  1  0
 21 52  1  0
 22 53  1  0
 22 54  1  0
 23 55  1  0
 23 56  1  0
 24 57  1  0
 24 58  1  0
 25 59  1  0
 25 60  1  0
M  END
>  <Energy>  (730) 
56.235695104171917

>  <compound_id>  (730) 
46668

>  <target_id>  (730) 
1

>  <reference_id>  (730) 
44

>  <inspiration_ids>  (730) 
[27, 44]

>  <energy_score>  (730) 
-36.339141668230184

>  <distance_score>  (730) 
7.308892948720394

>  <path>  (730) 
/opt/xchem-fragalysis-2/maxwin/BulkDock/SCRATCH/511023/C46668-P44/C46668-P44.minimised.mol

>  <scratch_subdir>  (730) 
/opt/xchem-fragalysis-2/maxwin/BulkDock/SCRATCH/511023/C46668-P44

>  <fragmenstein_runtime>  (730) 
32.102094888687134

>  <fragmenstein_outcome>  (730) 
too moved

>  <fragmenstein_mode>  (730) 
expansion

>  <fragmenstein_error>  (730) 


$$$$
C46669-P27
     RDKit          3D

 60 62  0  0  0  0  0  0  0  0999 V2000
   14.9391   -1.2525   19.8464 C   0  0  0  0  0  0  0  0  0  0  0  0
   15.1911   -2.6291   20.4640 C   0  0  0  0  0  0  0  0  0  0  0  0
   13.9339   -3.5213   20.4891 C   0  0  0  0  0  0  0  0  0  0  0  0
   13.8964   -4.5283   19.3246 C   0  0  0  0  0  0  0  0  0  0  0  0
   13.7693   -3.8837   17.9442 C   0  0  0  0  0  0  0  0  0  0  0  0
   13.6487   -4.1775   21.8947 C   0  0  0  0  0  0  0  0  0  0  0  0
   13.6718   -5.3645   22.0524 O   0  0  0  0  0  0  0  0  0  0  0  0
   13.2926   -3.1142   22.8017 N   0  0  0  0  0  0  0  0  0  0  0  0
   12.7609   -3.1490   24.1463 C   0  0  0  0  0  0  0  0  0  0  0  0
   13.3319   -2.0083   24.9773 C   0  0  0  0  0  0  0  0  0  0  0  0
   12.3060   -1.6192   26.0332 C   0  0  0  0  0  0  0  0  0  0  0  0
   11.7234   -2.7717   26.8873 C   0  0  0  0  0  0  0  0  0  0  0  0
   10.3524   -2.3658   27.3242 N   0  0  0  0  0  0  0  0  0  0  0  0
    9.3482   -3.0765   28.0955 C   0  0  0  0  0  0  0  0  0  0  0  0
    9.3345   -4.2032   28.5117 O   0  0  0  0  0  0  0  0  0  0  0  0
    8.0617   -2.1620   28.4310 C   0  0  0  0  0  0  0  0  0  0  0  0
    6.8853   -3.0327   28.9876 C   0  0  0  0  0  0  0  0  0  0  0  0
    5.5706   -2.2705   29.2377 C   0  0  0  0  0  0  0  0  0  0  0  0
    5.3325   -1.1322   28.2456 C   0  0  0  0  0  0  0  0  0  0  0  0
    6.5642   -0.3890   27.9143 N   0  0  0  0  0  0  0  0  0  0  0  0
    7.2883    0.0515   29.1217 C   0  0  0  0  0  0  0  0  0  0  0  0
    8.3370   -1.0325   29.4363 C   0  0  0  0  0  0  0  0  0  0  0  0
    7.5074   -1.3358   27.2740 C   0  0  0  0  0  0  0  0  0  0  0  0
   11.8243   -4.1927   26.2440 C   0  0  0  0  0  0  0  0  0  0  0  0
   12.7463   -4.3981   25.0025 C   0  0  0  0  0  0  0  0  0  0  0  0
   15.8691   -0.6752   19.8315 H   0  0  0  0  0  0  0  0  0  0  0  0
   14.2079   -0.6911   20.4361 H   0  0  0  0  0  0  0  0  0  0  0  0
   14.5731   -1.3252   18.8197 H   0  0  0  0  0  0  0  0  0  0  0  0
   15.5757   -2.4780   21.4796 H   0  0  0  0  0  0  0  0  0  0  0  0
   15.9974   -3.1246   19.9102 H   0  0  0  0  0  0  0  0  0  0  0  0
   13.0612   -2.8885   20.3220 H   0  0  0  0  0  0  0  0  0  0  0  0
   14.7848   -5.1700   19.3530 H   0  0  0  0  0  0  0  0  0  0  0  0
   13.0353   -5.1877   19.4707 H   0  0  0  0  0  0  0  0  0  0  0  0
   13.5675   -4.6439   17.1846 H   0  0  0  0  0  0  0  0  0  0  0  0
   12.9509   -3.1599   17.9129 H   0  0  0  0  0  0  0  0  0  0  0  0
   14.6957   -3.3751   17.6623 H   0  0  0  0  0  0  0  0  0  0  0  0
   13.3081   -2.2292   22.2988 H   0  0  0  0  0  0  0  0  0  0  0  0
   11.7152   -2.9031   23.9578 H   0  0  0  0  0  0  0  0  0  0  0  0
   14.2816   -2.2959   25.4442 H   0  0  0  0  0  0  0  0  0  0  0  0
   13.5431   -1.1287   24.3563 H   0  0  0  0  0  0  0  0  0  0  0  0
   11.4847   -1.1076   25.5110 H   0  0  0  0  0  0  0  0  0  0  0  0
   12.7362   -0.8609   26.6998 H   0  0  0  0  0  0  0  0  0  0  0  0
   12.3052   -2.8162   27.8172 H   0  0  0  0  0  0  0  0  0  0  0  0
    9.9952   -1.4564   27.0782 H   0  0  0  0  0  0  0  0  0  0  0  0
    6.6894   -3.8571   28.2986 H   0  0  0  0  0  0  0  0  0  0  0  0
    7.1918   -3.5161   29.9248 H   0  0  0  0  0  0  0  0  0  0  0  0
    4.7270   -2.9702   29.2179 H   0  0  0  0  0  0  0  0  0  0  0  0
    5.5975   -1.8614   30.2558 H   0  0  0  0  0  0  0  0  0  0  0  0
    4.5882   -0.4391   28.6559 H   0  0  0  0  0  0  0  0  0  0  0  0
    4.8909   -1.5284   27.3223 H   0  0  0  0  0  0  0  0  0  0  0  0
    7.8049    0.9930   28.8992 H   0  0  0  0  0  0  0  0  0  0  0  0
    6.6284    0.2558   29.9724 H   0  0  0  0  0  0  0  0  0  0  0  0
    8.2617   -1.3746   30.4744 H   0  0  0  0  0  0  0  0  0  0  0  0
    9.3454   -0.6230   29.3027 H   0  0  0  0  0  0  0  0  0  0  0  0
    7.0492   -1.9288   26.4832 H   0  0  0  0  0  0  0  0  0  0  0  0
    8.2886   -0.7397   26.7952 H   0  0  0  0  0  0  0  0  0  0  0  0
   12.1513   -4.8970   27.0211 H   0  0  0  0  0  0  0  0  0  0  0  0
   10.8218   -4.5420   25.9909 H   0  0  0  0  0  0  0  0  0  0  0  0
   13.7624   -4.6440   25.3341 H   0  0  0  0  0  0  0  0  0  0  0  0
   12.3857   -5.2634   24.4355 H   0  0  0  0  0  0  0  0  0  0  0  0
  1  2  1  0
  2  3  1  0
  3  4  1  0
  4  5  1  0
  3  6  1  0
  6  7  2  0
  6  8  1  0
  8  9  1  0
  9 10  1  0
 10 11  1  0
 11 12  1  0
 12 13  1  0
 13 14  1  0
 14 15  2  0
 14 16  1  0
 16 17  1  0
 17 18  1  0
 18 19  1  0
 19 20  1  0
 20 21  1  0
 21 22  1  0
 20 23  1  0
 12 24  1  0
 24 25  1  0
 25  9  1  0
 22 16  1  0
 23 16  1  0
  1 26  1  0
  1 27  1  0
  1 28  1  0
  2 29  1  0
  2 30  1  0
  3 31  1  0
  4 32  1  0
  4 33  1  0
  5 34  1  0
  5 35  1  0
  5 36  1  0
  8 37  1  0
  9 38  1  0
 10 39  1  0
 10 40  1  0
 11 41  1  0
 11 42  1  0
 12 43  1  0
 13 44  1  0
 17 45  1  0
 17 46  1  0
 18 47  1  0
 18 48  1  0
 19 49  1  0
 19 50  1  0
 21 51  1  0
 21 52  1  0
 22 53  1  0
 22 54  1  0
 23 55  1  0
 23 56  1  0
 24 57  1  0
 24 58  1  0
 25 59  1  0
 25 60  1  0
M  END
>  <Energy>  (731) 
33.636330066545085

>  <compound_id>  (731) 
46669

>  <target_id>  (731) 
1

>  <reference_id>  (731) 
27

>  <inspiration_ids>  (731) 
[27, 44]

>  <energy_score>  (731) 
-21.93637971701122

>  <distance_score>  (731) 
7.754643714293485

>  <path>  (731) 
/opt/xchem-fragalysis-2/maxwin/BulkDock/SCRATCH/511023/C46669-P27/C46669-P27.minimised.mol

>  <scratch_subdir>  (731) 
/opt/xchem-fragalysis-2/maxwin/BulkDock/SCRATCH/511023/C46669-P27

>  <fragmenstein_runtime>  (731) 
26.069257974624634

>  <fragmenstein_outcome>  (731) 
too moved

>  <fragmenstein_mode>  (731) 
expansion

>  <fragmenstein_error>  (731) 


$$$$
C46669-P44
     RDKit          3D

 60 62  0  0  0  0  0  0  0  0999 V2000
   13.8817   -3.7259   20.1745 C   0  0  0  0  0  0  0  0  0  0  0  0
   14.8896   -3.0438   21.0878 C   0  0  0  0  0  0  0  0  0  0  0  0
   14.6935   -1.5216   21.2023 C   0  0  0  0  0  0  0  0  0  0  0  0
   15.5806   -0.7371   20.2018 C   0  0  0  0  0  0  0  0  0  0  0  0
   15.6474   -1.2764   18.7718 C   0  0  0  0  0  0  0  0  0  0  0  0
   14.9240   -1.0904   22.6880 C   0  0  0  0  0  0  0  0  0  0  0  0
   15.9860   -0.6356   23.0046 O   0  0  0  0  0  0  0  0  0  0  0  0
   13.7623   -1.4236   23.4880 N   0  0  0  0  0  0  0  0  0  0  0  0
   13.4886   -1.2219   24.9058 C   0  0  0  0  0  0  0  0  0  0  0  0
   12.5950   -2.3319   25.4774 C   0  0  0  0  0  0  0  0  0  0  0  0
   11.0749   -2.0915   25.4274 C   0  0  0  0  0  0  0  0  0  0  0  0
   10.6312   -0.6201   25.5643 C   0  0  0  0  0  0  0  0  0  0  0  0
    9.2787   -0.4273   26.1380 N   0  0  0  0  0  0  0  0  0  0  0  0
    8.8098   -0.4849   27.5053 C   0  0  0  0  0  0  0  0  0  0  0  0
    9.4123   -0.6259   28.5322 O   0  0  0  0  0  0  0  0  0  0  0  0
    7.2286   -0.2491   27.5861 C   0  0  0  0  0  0  0  0  0  0  0  0
    6.7856    1.1316   27.0214 C   0  0  0  0  0  0  0  0  0  0  0  0
    5.2668    1.3693   27.1066 C   0  0  0  0  0  0  0  0  0  0  0  0
    4.4591    0.1000   26.8136 C   0  0  0  0  0  0  0  0  0  0  0  0
    5.0287   -1.1197   27.4226 N   0  0  0  0  0  0  0  0  0  0  0  0
    5.2462   -0.9427   28.8717 C   0  0  0  0  0  0  0  0  0  0  0  0
    6.6754   -0.4000   29.0289 C   0  0  0  0  0  0  0  0  0  0  0  0
    6.4000   -1.3383   26.9022 C   0  0  0  0  0  0  0  0  0  0  0  0
   11.7540    0.2272   26.1564 C   0  0  0  0  0  0  0  0  0  0  0  0
   12.9715    0.1929   25.2090 C   0  0  0  0  0  0  0  0  0  0  0  0
   12.8900   -3.7060   20.6339 H   0  0  0  0  0  0  0  0  0  0  0  0
   14.1532   -4.7789   20.0434 H   0  0  0  0  0  0  0  0  0  0  0  0
   13.8196   -3.2751   19.1839 H   0  0  0  0  0  0  0  0  0  0  0  0
   15.9066   -3.2728   20.7480 H   0  0  0  0  0  0  0  0  0  0  0  0
   14.8053   -3.5193   22.0733 H   0  0  0  0  0  0  0  0  0  0  0  0
   13.6658   -1.2536   20.9722 H   0  0  0  0  0  0  0  0  0  0  0  0
   15.2241    0.3006   20.1728 H   0  0  0  0  0  0  0  0  0  0  0  0
   16.6089   -0.6854   20.5811 H   0  0  0  0  0  0  0  0  0  0  0  0
   14.6655   -1.4714   18.3443 H   0  0  0  0  0  0  0  0  0  0  0  0
   16.2261   -2.2042   18.7279 H   0  0  0  0  0  0  0  0  0  0  0  0
   16.1551   -0.5500   18.1285 H   0  0  0  0  0  0  0  0  0  0  0  0
   13.0051   -1.7113   22.8713 H   0  0  0  0  0  0  0  0  0  0  0  0
   14.4716   -1.3164   25.3858 H   0  0  0  0  0  0  0  0  0  0  0  0
   12.8587   -2.4425   26.5389 H   0  0  0  0  0  0  0  0  0  0  0  0
   12.8276   -3.2992   25.0149 H   0  0  0  0  0  0  0  0  0  0  0  0
   10.6070   -2.6952   26.2156 H   0  0  0  0  0  0  0  0  0  0  0  0
   10.6955   -2.4995   24.4878 H   0  0  0  0  0  0  0  0  0  0  0  0
   10.5090   -0.2190   24.5544 H   0  0  0  0  0  0  0  0  0  0  0  0
    8.4823   -0.3829   25.5185 H   0  0  0  0  0  0  0  0  0  0  0  0
    7.3129    1.9392   27.5437 H   0  0  0  0  0  0  0  0  0  0  0  0
    7.0818    1.2110   25.9735 H   0  0  0  0  0  0  0  0  0  0  0  0
    5.0205    1.7363   28.1107 H   0  0  0  0  0  0  0  0  0  0  0  0
    4.9772    2.1667   26.4124 H   0  0  0  0  0  0  0  0  0  0  0  0
    4.3920   -0.0472   25.7278 H   0  0  0  0  0  0  0  0  0  0  0  0
    3.4268    0.2342   27.1588 H   0  0  0  0  0  0  0  0  0  0  0  0
    4.4969   -0.2996   29.3469 H   0  0  0  0  0  0  0  0  0  0  0  0
    5.1739   -1.9209   29.3624 H   0  0  0  0  0  0  0  0  0  0  0  0
    7.2635   -1.1188   29.6120 H   0  0  0  0  0  0  0  0  0  0  0  0
    6.6912    0.5503   29.5742 H   0  0  0  0  0  0  0  0  0  0  0  0
    6.7515   -2.3411   27.1788 H   0  0  0  0  0  0  0  0  0  0  0  0
    6.4279   -1.2894   25.8127 H   0  0  0  0  0  0  0  0  0  0  0  0
   11.4213    1.2656   26.2731 H   0  0  0  0  0  0  0  0  0  0  0  0
   12.0291   -0.1293   27.1560 H   0  0  0  0  0  0  0  0  0  0  0  0
   12.7064    0.7092   24.2768 H   0  0  0  0  0  0  0  0  0  0  0  0
   13.7800    0.7852   25.6554 H   0  0  0  0  0  0  0  0  0  0  0  0
  1  2  1  0
  2  3  1  0
  3  4  1  0
  4  5  1  0
  3  6  1  0
  6  7  2  0
  6  8  1  0
  8  9  1  0
  9 10  1  0
 10 11  1  0
 11 12  1  0
 12 13  1  0
 13 14  1  0
 14 15  2  0
 14 16  1  0
 16 17  1  0
 17 18  1  0
 18 19  1  0
 19 20  1  0
 20 21  1  0
 21 22  1  0
 20 23  1  0
 12 24  1  0
 24 25  1  0
 25  9  1  0
 22 16  1  0
 23 16  1  0
  1 26  1  0
  1 27  1  0
  1 28  1  0
  2 29  1  0
  2 30  1  0
  3 31  1  0
  4 32  1  0
  4 33  1  0
  5 34  1  0
  5 35  1  0
  5 36  1  0
  8 37  1  0
  9 38  1  0
 10 39  1  0
 10 40  1  0
 11 41  1  0
 11 42  1  0
 12 43  1  0
 13 44  1  0
 17 45  1  0
 17 46  1  0
 18 47  1  0
 18 48  1  0
 19 49  1  0
 19 50  1  0
 21 51  1  0
 21 52  1  0
 22 53  1  0
 22 54  1  0
 23 55  1  0
 23 56  1  0
 24 57  1  0
 24 58  1  0
 25 59  1  0
 25 60  1  0
M  END
>  <Energy>  (732) 
21.952386470613078

>  <compound_id>  (732) 
46669

>  <target_id>  (732) 
1

>  <reference_id>  (732) 
44

>  <inspiration_ids>  (732) 
[27, 44]

>  <energy_score>  (732) 
-33.62032331294239

>  <distance_score>  (732) 
7.3899850861508085

>  <path>  (732) 
/opt/xchem-fragalysis-2/maxwin/BulkDock/SCRATCH/511023/C46669-P44/C46669-P44.minimised.mol

>  <scratch_subdir>  (732) 
/opt/xchem-fragalysis-2/maxwin/BulkDock/SCRATCH/511023/C46669-P44

>  <fragmenstein_runtime>  (732) 
17.617849349975586

>  <fragmenstein_outcome>  (732) 
too moved

>  <fragmenstein_mode>  (732) 
expansion

>  <fragmenstein_error>  (732) 


$$$$
C46680-P27
     RDKit          3D

 54 56  0  0  0  0  0  0  0  0999 V2000
   14.6744   -1.1319   21.9245 C   0  0  0  0  0  0  0  0  0  0  0  0
   15.1631    0.0503   22.7476 C   0  0  0  0  0  0  0  0  0  0  0  0
   14.1578    1.1613   23.1194 C   0  0  0  0  0  0  0  0  0  0  0  0
   13.2507    1.6277   21.9695 C   0  0  0  0  0  0  0  0  0  0  0  0
   13.9958    2.0176   20.6925 C   0  0  0  0  0  0  0  0  0  0  0  0
   13.3630    0.9475   24.4611 C   0  0  0  0  0  0  0  0  0  0  0  0
   13.5591    1.7315   25.3463 O   0  0  0  0  0  0  0  0  0  0  0  0
   12.4924   -0.1865   24.3941 N   0  0  0  0  0  0  0  0  0  0  0  0
   11.4998   -0.6920   25.3402 C   0  0  0  0  0  0  0  0  0  0  0  0
   10.2070    0.1029   25.3211 C   0  0  0  0  0  0  0  0  0  0  0  0
    9.9225    0.9194   26.5929 C   0  0  0  0  0  0  0  0  0  0  0  0
    9.7568    0.0832   27.8517 N   0  0  0  0  0  0  0  0  0  0  0  0
    8.8749    0.7498   28.7840 C   0  0  0  0  0  0  0  0  0  0  0  0
    9.1203    1.5267   29.6748 O   0  0  0  0  0  0  0  0  0  0  0  0
    7.3739    0.3456   28.6138 C   0  0  0  0  0  0  0  0  0  0  0  0
    7.0016   -1.0290   28.0524 C   0  0  0  0  0  0  0  0  0  0  0  0
    5.5580   -1.2134   28.5446 C   0  0  0  0  0  0  0  0  0  0  0  0
    5.2935   -0.0211   29.4014 N   0  0  0  0  0  0  0  0  0  0  0  0
    5.0974    1.1457   28.5104 C   0  0  0  0  0  0  0  0  0  0  0  0
    6.4929    1.4119   27.9386 C   0  0  0  0  0  0  0  0  0  0  0  0
    6.6458    0.2648   29.9632 C   0  0  0  0  0  0  0  0  0  0  0  0
   11.2773    0.0591   27.7674 C   0  0  0  0  0  0  0  0  0  0  0  0
   11.9550   -0.8997   26.7703 C   0  0  0  0  0  0  0  0  0  0  0  0
   14.0521   -1.7949   22.5300 H   0  0  0  0  0  0  0  0  0  0  0  0
   14.1252   -0.8381   21.0296 H   0  0  0  0  0  0  0  0  0  0  0  0
   15.5340   -1.7270   21.5963 H   0  0  0  0  0  0  0  0  0  0  0  0
   15.6209   -0.3360   23.6670 H   0  0  0  0  0  0  0  0  0  0  0  0
   15.9809    0.5175   22.1826 H   0  0  0  0  0  0  0  0  0  0  0  0
   14.7964    2.0293   23.3539 H   0  0  0  0  0  0  0  0  0  0  0  0
   12.6819    2.5019   22.3128 H   0  0  0  0  0  0  0  0  0  0  0  0
   12.5066    0.8634   21.7658 H   0  0  0  0  0  0  0  0  0  0  0  0
   14.8130    2.7096   20.9216 H   0  0  0  0  0  0  0  0  0  0  0  0
   14.4176    1.1540   20.1743 H   0  0  0  0  0  0  0  0  0  0  0  0
   13.3245    2.5303   19.9975 H   0  0  0  0  0  0  0  0  0  0  0  0
   12.5238   -0.5743   23.4497 H   0  0  0  0  0  0  0  0  0  0  0  0
   11.2990   -1.6923   24.9387 H   0  0  0  0  0  0  0  0  0  0  0  0
    9.3946   -0.6264   25.2607 H   0  0  0  0  0  0  0  0  0  0  0  0
   10.1393    0.7494   24.4393 H   0  0  0  0  0  0  0  0  0  0  0  0
   10.5159    1.8446   26.6906 H   0  0  0  0  0  0  0  0  0  0  0  0
    8.9226    1.3435   26.4180 H   0  0  0  0  0  0  0  0  0  0  0  0
    7.6506   -1.8125   28.4619 H   0  0  0  0  0  0  0  0  0  0  0  0
    7.0665   -1.0776   26.9641 H   0  0  0  0  0  0  0  0  0  0  0  0
    4.8411   -1.3036   27.7207 H   0  0  0  0  0  0  0  0  0  0  0  0
    5.4780   -2.1247   29.1486 H   0  0  0  0  0  0  0  0  0  0  0  0
    4.7533    2.0067   29.0958 H   0  0  0  0  0  0  0  0  0  0  0  0
    4.3492    0.9629   27.7310 H   0  0  0  0  0  0  0  0  0  0  0  0
    6.4902    1.2656   26.8667 H   0  0  0  0  0  0  0  0  0  0  0  0
    6.8278    2.4310   28.1596 H   0  0  0  0  0  0  0  0  0  0  0  0
    6.6594    1.1950   30.5454 H   0  0  0  0  0  0  0  0  0  0  0  0
    7.0049   -0.5453   30.6105 H   0  0  0  0  0  0  0  0  0  0  0  0
   11.7697    1.0432   27.8527 H   0  0  0  0  0  0  0  0  0  0  0  0
   11.5313   -0.3588   28.7553 H   0  0  0  0  0  0  0  0  0  0  0  0
   13.0446   -0.8302   26.8654 H   0  0  0  0  0  0  0  0  0  0  0  0
   11.6855   -1.9217   27.0703 H   0  0  0  0  0  0  0  0  0  0  0  0
  1  2  1  0
  2  3  1  0
  3  4  1  0
  4  5  1  0
  3  6  1  0
  6  7  2  0
  6  8  1  0
  8  9  1  0
  9 10  1  0
 10 11  1  0
 11 12  1  0
 12 13  1  0
 13 14  2  0
 13 15  1  0
 15 16  1  0
 16 17  1  0
 17 18  1  0
 18 19  1  0
 19 20  1  0
 18 21  1  0
 12 22  1  0
 22 23  1  0
 23  9  1  0
 20 15  1  0
 21 15  1  0
  1 24  1  0
  1 25  1  0
  1 26  1  0
  2 27  1  0
  2 28  1  0
  3 29  1  0
  4 30  1  0
  4 31  1  0
  5 32  1  0
  5 33  1  0
  5 34  1  0
  8 35  1  0
  9 36  1  0
 10 37  1  0
 10 38  1  0
 11 39  1  0
 11 40  1  0
 16 41  1  0
 16 42  1  0
 17 43  1  0
 17 44  1  0
 19 45  1  0
 19 46  1  0
 20 47  1  0
 20 48  1  0
 21 49  1  0
 21 50  1  0
 22 51  1  0
 22 52  1  0
 23 53  1  0
 23 54  1  0
M  END
>  <Energy>  (733) 
78.627101637961488

>  <compound_id>  (733) 
46680

>  <target_id>  (733) 
1

>  <reference_id>  (733) 
27

>  <inspiration_ids>  (733) 
[27, 44]

>  <energy_score>  (733) 
32.62433369552883

>  <distance_score>  (733) 
8.725358694279448

>  <path>  (733) 
/opt/xchem-fragalysis-2/maxwin/BulkDock/SCRATCH/511023/C46680-P27/C46680-P27.minimised.mol

>  <scratch_subdir>  (733) 
/opt/xchem-fragalysis-2/maxwin/BulkDock/SCRATCH/511023/C46680-P27

>  <fragmenstein_runtime>  (733) 
16.727982997894287

>  <fragmenstein_outcome>  (733) 
too moved

>  <fragmenstein_mode>  (733) 
expansion

>  <fragmenstein_error>  (733) 


$$$$
C46680-P44
     RDKit          3D

 54 56  0  0  0  0  0  0  0  0999 V2000
   15.4419    1.0309   20.4666 C   0  0  0  0  0  0  0  0  0  0  0  0
   15.1168    1.2141   21.9408 C   0  0  0  0  0  0  0  0  0  0  0  0
   14.1538    0.1673   22.5542 C   0  0  0  0  0  0  0  0  0  0  0  0
   14.7375   -1.2583   22.5153 C   0  0  0  0  0  0  0  0  0  0  0  0
   14.3402   -2.0903   21.2978 C   0  0  0  0  0  0  0  0  0  0  0  0
   13.7441    0.6028   24.0059 C   0  0  0  0  0  0  0  0  0  0  0  0
   14.4782    1.3227   24.6210 O   0  0  0  0  0  0  0  0  0  0  0  0
   12.4656    0.0355   24.3625 N   0  0  0  0  0  0  0  0  0  0  0  0
   11.6301    0.2343   25.5299 C   0  0  0  0  0  0  0  0  0  0  0  0
   10.4685    1.1854   25.3087 C   0  0  0  0  0  0  0  0  0  0  0  0
    9.5863    1.2400   26.5964 C   0  0  0  0  0  0  0  0  0  0  0  0
    8.7061    0.0407   27.0036 N   0  0  0  0  0  0  0  0  0  0  0  0
    7.7103    0.4577   27.9708 C   0  0  0  0  0  0  0  0  0  0  0  0
    7.7506    0.4750   29.1773 O   0  0  0  0  0  0  0  0  0  0  0  0
    6.3337    0.8468   27.3518 C   0  0  0  0  0  0  0  0  0  0  0  0
    6.1725    2.2126   26.6811 C   0  0  0  0  0  0  0  0  0  0  0  0
    4.6556    2.4513   26.7628 C   0  0  0  0  0  0  0  0  0  0  0  0
    4.1295    1.2879   27.5217 N   0  0  0  0  0  0  0  0  0  0  0  0
    4.1640    0.0988   26.6347 C   0  0  0  0  0  0  0  0  0  0  0  0
    5.6558   -0.2188   26.4821 C   0  0  0  0  0  0  0  0  0  0  0  0
    5.2559    0.9956   28.4464 C   0  0  0  0  0  0  0  0  0  0  0  0
   10.0621   -0.6087   27.2015 C   0  0  0  0  0  0  0  0  0  0  0  0
   10.9660   -1.0253   26.0298 C   0  0  0  0  0  0  0  0  0  0  0  0
   16.0018    0.1093   20.2883 H   0  0  0  0  0  0  0  0  0  0  0  0
   14.5324    1.0191   19.8717 H   0  0  0  0  0  0  0  0  0  0  0  0
   16.0605    1.8631   20.1148 H   0  0  0  0  0  0  0  0  0  0  0  0
   16.0567    1.2272   22.5072 H   0  0  0  0  0  0  0  0  0  0  0  0
   14.6750    2.2114   22.0669 H   0  0  0  0  0  0  0  0  0  0  0  0
   13.2459    0.1976   21.9620 H   0  0  0  0  0  0  0  0  0  0  0  0
   14.4365   -1.8151   23.4114 H   0  0  0  0  0  0  0  0  0  0  0  0
   15.8325   -1.2031   22.5590 H   0  0  0  0  0  0  0  0  0  0  0  0
   15.0220   -2.9409   21.1928 H   0  0  0  0  0  0  0  0  0  0  0  0
   13.3410   -2.5057   21.4432 H   0  0  0  0  0  0  0  0  0  0  0  0
   14.3663   -1.5201   20.3681 H   0  0  0  0  0  0  0  0  0  0  0  0
   12.0859   -0.4655   23.5549 H   0  0  0  0  0  0  0  0  0  0  0  0
   12.2835    0.6469   26.3095 H   0  0  0  0  0  0  0  0  0  0  0  0
   10.8449    2.1899   25.0812 H   0  0  0  0  0  0  0  0  0  0  0  0
    9.8632    0.8710   24.4524 H   0  0  0  0  0  0  0  0  0  0  0  0
   10.1202    1.6744   27.4601 H   0  0  0  0  0  0  0  0  0  0  0  0
    8.8535    2.0265   26.3700 H   0  0  0  0  0  0  0  0  0  0  0  0
    6.5263    2.2192   25.6491 H   0  0  0  0  0  0  0  0  0  0  0  0
    6.7162    2.9900   27.2308 H   0  0  0  0  0  0  0  0  0  0  0  0
    4.1939    2.5483   25.7736 H   0  0  0  0  0  0  0  0  0  0  0  0
    4.4473    3.3773   27.3115 H   0  0  0  0  0  0  0  0  0  0  0  0
    3.6744    0.2804   25.6719 H   0  0  0  0  0  0  0  0  0  0  0  0
    3.6411   -0.7375   27.1135 H   0  0  0  0  0  0  0  0  0  0  0  0
    5.9665   -0.1297   25.4428 H   0  0  0  0  0  0  0  0  0  0  0  0
    5.8795   -1.2339   26.8286 H   0  0  0  0  0  0  0  0  0  0  0  0
    5.4389    1.8209   29.1467 H   0  0  0  0  0  0  0  0  0  0  0  0
    5.0842    0.0831   29.0321 H   0  0  0  0  0  0  0  0  0  0  0  0
    9.7504   -1.5707   27.6398 H   0  0  0  0  0  0  0  0  0  0  0  0
   10.6194   -0.1764   28.0517 H   0  0  0  0  0  0  0  0  0  0  0  0
   11.7258   -1.7362   26.3757 H   0  0  0  0  0  0  0  0  0  0  0  0
   10.3858   -1.5306   25.2528 H   0  0  0  0  0  0  0  0  0  0  0  0
  1  2  1  0
  2  3  1  0
  3  4  1  0
  4  5  1  0
  3  6  1  0
  6  7  2  0
  6  8  1  0
  8  9  1  0
  9 10  1  0
 10 11  1  0
 11 12  1  0
 12 13  1  0
 13 14  2  0
 13 15  1  0
 15 16  1  0
 16 17  1  0
 17 18  1  0
 18 19  1  0
 19 20  1  0
 18 21  1  0
 12 22  1  0
 22 23  1  0
 23  9  1  0
 20 15  1  0
 21 15  1  0
  1 24  1  0
  1 25  1  0
  1 26  1  0
  2 27  1  0
  2 28  1  0
  3 29  1  0
  4 30  1  0
  4 31  1  0
  5 32  1  0
  5 33  1  0
  5 34  1  0
  8 35  1  0
  9 36  1  0
 10 37  1  0
 10 38  1  0
 11 39  1  0
 11 40  1  0
 16 41  1  0
 16 42  1  0
 17 43  1  0
 17 44  1  0
 19 45  1  0
 19 46  1  0
 20 47  1  0
 20 48  1  0
 21 49  1  0
 21 50  1  0
 22 51  1  0
 22 52  1  0
 23 53  1  0
 23 54  1  0
M  END
>  <Energy>  (734) 
77.420420706413992

>  <compound_id>  (734) 
46680

>  <target_id>  (734) 
1

>  <reference_id>  (734) 
44

>  <inspiration_ids>  (734) 
[27, 44]

>  <energy_score>  (734) 
31.41765276397757

>  <distance_score>  (734) 
8.14863972134972

>  <path>  (734) 
/opt/xchem-fragalysis-2/maxwin/BulkDock/SCRATCH/511023/C46680-P44/C46680-P44.minimised.mol

>  <scratch_subdir>  (734) 
/opt/xchem-fragalysis-2/maxwin/BulkDock/SCRATCH/511023/C46680-P44

>  <fragmenstein_runtime>  (734) 
17.93459129333496

>  <fragmenstein_outcome>  (734) 
too moved

>  <fragmenstein_mode>  (734) 
expansion

>  <fragmenstein_error>  (734) 


$$$$
C46681-P27
     RDKit          3D

 60 62  0  0  0  0  0  0  0  0999 V2000
   14.6905    0.7235   20.2066 C   0  0  0  0  0  0  0  0  0  0  0  0
   14.1234    0.4716   21.5991 C   0  0  0  0  0  0  0  0  0  0  0  0
   14.6965   -0.7293   22.3818 C   0  0  0  0  0  0  0  0  0  0  0  0
   14.5047   -2.1744   21.8659 C   0  0  0  0  0  0  0  0  0  0  0  0
   14.7288   -2.4409   20.3840 C   0  0  0  0  0  0  0  0  0  0  0  0
   14.3472   -0.6059   23.9147 C   0  0  0  0  0  0  0  0  0  0  0  0
   15.2871   -0.4565   24.6474 O   0  0  0  0  0  0  0  0  0  0  0  0
   12.9278   -0.6101   24.1914 N   0  0  0  0  0  0  0  0  0  0  0  0
   12.1981   -0.5302   25.4567 C   0  0  0  0  0  0  0  0  0  0  0  0
   11.0209    0.4247   25.5194 C   0  0  0  0  0  0  0  0  0  0  0  0
   10.4145    0.3884   26.9691 C   0  0  0  0  0  0  0  0  0  0  0  0
    9.5895   -0.8254   27.4566 N   0  0  0  0  0  0  0  0  0  0  0  0
    8.8176   -0.4669   28.6514 C   0  0  0  0  0  0  0  0  0  0  0  0
    9.1045   -0.5516   29.8230 O   0  0  0  0  0  0  0  0  0  0  0  0
    7.3118    0.0140   28.3748 C   0  0  0  0  0  0  0  0  0  0  0  0
    7.2740    1.4437   27.7953 C   0  0  0  0  0  0  0  0  0  0  0  0
    5.9765    2.2290   28.0778 C   0  0  0  0  0  0  0  0  0  0  0  0
    4.7827    1.3430   28.4166 C   0  0  0  0  0  0  0  0  0  0  0  0
    5.0655    0.3442   29.4673 N   0  0  0  0  0  0  0  0  0  0  0  0
    4.4935   -0.9558   29.0792 C   0  0  0  0  0  0  0  0  0  0  0  0
    5.4701   -1.8247   28.2719 C   0  0  0  0  0  0  0  0  0  0  0  0
    6.5388   -1.0226   27.5003 C   0  0  0  0  0  0  0  0  0  0  0  0
    6.5186    0.1543   29.7161 C   0  0  0  0  0  0  0  0  0  0  0  0
   10.9386   -1.5179   27.3213 C   0  0  0  0  0  0  0  0  0  0  0  0
   11.6194   -1.8269   25.9683 C   0  0  0  0  0  0  0  0  0  0  0  0
   14.2769    0.0425   19.4622 H   0  0  0  0  0  0  0  0  0  0  0  0
   14.4322    1.7374   19.8819 H   0  0  0  0  0  0  0  0  0  0  0  0
   15.7813    0.6391   20.2010 H   0  0  0  0  0  0  0  0  0  0  0  0
   13.0379    0.4368   21.5540 H   0  0  0  0  0  0  0  0  0  0  0  0
   14.3401    1.3729   22.1905 H   0  0  0  0  0  0  0  0  0  0  0  0
   15.7876   -0.5736   22.3473 H   0  0  0  0  0  0  0  0  0  0  0  0
   15.2339   -2.7925   22.4106 H   0  0  0  0  0  0  0  0  0  0  0  0
   13.5478   -2.5981   22.1747 H   0  0  0  0  0  0  0  0  0  0  0  0
   14.7594   -3.5211   20.2043 H   0  0  0  0  0  0  0  0  0  0  0  0
   15.6825   -2.0235   20.0480 H   0  0  0  0  0  0  0  0  0  0  0  0
   13.9247   -2.0416   19.7720 H   0  0  0  0  0  0  0  0  0  0  0  0
   12.4216   -0.8513   23.3343 H   0  0  0  0  0  0  0  0  0  0  0  0
   12.9507   -0.1876   26.1804 H   0  0  0  0  0  0  0  0  0  0  0  0
   11.3567    1.4437   25.2938 H   0  0  0  0  0  0  0  0  0  0  0  0
   10.2488    0.1707   24.7859 H   0  0  0  0  0  0  0  0  0  0  0  0
   11.1287    0.7349   27.7368 H   0  0  0  0  0  0  0  0  0  0  0  0
    9.6927    1.2100   26.9519 H   0  0  0  0  0  0  0  0  0  0  0  0
    8.0941    2.0342   28.2264 H   0  0  0  0  0  0  0  0  0  0  0  0
    7.4898    1.4052   26.7341 H   0  0  0  0  0  0  0  0  0  0  0  0
    5.7390    2.8736   27.2242 H   0  0  0  0  0  0  0  0  0  0  0  0
    6.1585    2.9085   28.9215 H   0  0  0  0  0  0  0  0  0  0  0  0
    3.9534    1.9720   28.7609 H   0  0  0  0  0  0  0  0  0  0  0  0
    4.4367    0.8824   27.4823 H   0  0  0  0  0  0  0  0  0  0  0  0
    4.2250   -1.5021   29.9925 H   0  0  0  0  0  0  0  0  0  0  0  0
    3.5465   -0.8316   28.5382 H   0  0  0  0  0  0  0  0  0  0  0  0
    5.9816   -2.5226   28.9473 H   0  0  0  0  0  0  0  0  0  0  0  0
    4.8868   -2.4329   27.5746 H   0  0  0  0  0  0  0  0  0  0  0  0
    7.2240   -1.7288   27.0209 H   0  0  0  0  0  0  0  0  0  0  0  0
    6.0139   -0.5098   26.6918 H   0  0  0  0  0  0  0  0  0  0  0  0
    6.6726   -0.7121   30.3745 H   0  0  0  0  0  0  0  0  0  0  0  0
    6.8968    1.0049   30.3004 H   0  0  0  0  0  0  0  0  0  0  0  0
   11.6532   -1.1791   28.0923 H   0  0  0  0  0  0  0  0  0  0  0  0
   10.6800   -2.5155   27.7116 H   0  0  0  0  0  0  0  0  0  0  0  0
   10.9004   -2.2530   25.2695 H   0  0  0  0  0  0  0  0  0  0  0  0
   12.4154   -2.5670   26.1104 H   0  0  0  0  0  0  0  0  0  0  0  0
  1  2  1  0
  2  3  1  0
  3  4  1  0
  4  5  1  0
  3  6  1  0
  6  7  2  0
  6  8  1  0
  8  9  1  0
  9 10  1  0
 10 11  1  0
 11 12  1  0
 12 13  1  0
 13 14  2  0
 13 15  1  0
 15 16  1  0
 16 17  1  0
 17 18  1  0
 18 19  1  0
 19 20  1  0
 20 21  1  0
 21 22  1  0
 19 23  1  0
 12 24  1  0
 24 25  1  0
 25  9  1  0
 22 15  1  0
 23 15  1  0
  1 26  1  0
  1 27  1  0
  1 28  1  0
  2 29  1  0
  2 30  1  0
  3 31  1  0
  4 32  1  0
  4 33  1  0
  5 34  1  0
  5 35  1  0
  5 36  1  0
  8 37  1  0
  9 38  1  0
 10 39  1  0
 10 40  1  0
 11 41  1  0
 11 42  1  0
 16 43  1  0
 16 44  1  0
 17 45  1  0
 17 46  1  0
 18 47  1  0
 18 48  1  0
 20 49  1  0
 20 50  1  0
 21 51  1  0
 21 52  1  0
 22 53  1  0
 22 54  1  0
 23 55  1  0
 23 56  1  0
 24 57  1  0
 24 58  1  0
 25 59  1  0
 25 60  1  0
M  END
>  <Energy>  (735) 
102.81539946946003

>  <compound_id>  (735) 
46681

>  <target_id>  (735) 
1

>  <reference_id>  (735) 
27

>  <inspiration_ids>  (735) 
[27, 44]

>  <energy_score>  (735) 
38.98784588975798

>  <distance_score>  (735) 
7.891521203547208

>  <path>  (735) 
/opt/xchem-fragalysis-2/maxwin/BulkDock/SCRATCH/511023/C46681-P27/C46681-P27.minimised.mol

>  <scratch_subdir>  (735) 
/opt/xchem-fragalysis-2/maxwin/BulkDock/SCRATCH/511023/C46681-P27

>  <fragmenstein_runtime>  (735) 
38.79268717765808

>  <fragmenstein_outcome>  (735) 
too moved

>  <fragmenstein_mode>  (735) 
expansion

>  <fragmenstein_error>  (735) 


$$$$
C46681-P44
     RDKit          3D

 60 62  0  0  0  0  0  0  0  0999 V2000
   14.8708   -1.6721   21.0913 C   0  0  0  0  0  0  0  0  0  0  0  0
   14.2987   -2.2658   22.3749 C   0  0  0  0  0  0  0  0  0  0  0  0
   13.2919   -3.4382   22.2213 C   0  0  0  0  0  0  0  0  0  0  0  0
   13.9008   -4.6171   21.4253 C   0  0  0  0  0  0  0  0  0  0  0  0
   13.6729   -4.5504   19.9129 C   0  0  0  0  0  0  0  0  0  0  0  0
   12.6951   -3.8591   23.6359 C   0  0  0  0  0  0  0  0  0  0  0  0
   12.9032   -4.9484   24.0885 O   0  0  0  0  0  0  0  0  0  0  0  0
   11.9031   -2.7616   24.1460 N   0  0  0  0  0  0  0  0  0  0  0  0
   11.0410   -2.6679   25.3085 C   0  0  0  0  0  0  0  0  0  0  0  0
   10.5139   -3.9130   25.9703 C   0  0  0  0  0  0  0  0  0  0  0  0
    9.5228   -3.5001   27.1234 C   0  0  0  0  0  0  0  0  0  0  0  0
    9.2453   -2.0103   27.4816 N   0  0  0  0  0  0  0  0  0  0  0  0
    8.1733   -1.9188   28.4551 C   0  0  0  0  0  0  0  0  0  0  0  0
    8.2120   -1.9063   29.6625 O   0  0  0  0  0  0  0  0  0  0  0  0
    6.7173   -1.6912   27.8140 C   0  0  0  0  0  0  0  0  0  0  0  0
    6.7377   -0.5980   26.7189 C   0  0  0  0  0  0  0  0  0  0  0  0
    5.3538   -0.1039   26.2652 C   0  0  0  0  0  0  0  0  0  0  0  0
    4.3697    0.1141   27.4163 C   0  0  0  0  0  0  0  0  0  0  0  0
    4.3994   -0.9026   28.4711 N   0  0  0  0  0  0  0  0  0  0  0  0
    3.7828   -2.1752   28.1002 C   0  0  0  0  0  0  0  0  0  0  0  0
    4.5809   -3.0138   27.1022 C   0  0  0  0  0  0  0  0  0  0  0  0
    6.0991   -3.0275   27.3449 C   0  0  0  0  0  0  0  0  0  0  0  0
    5.7800   -1.1344   28.9356 C   0  0  0  0  0  0  0  0  0  0  0  0
   10.7437   -2.0048   27.6656 C   0  0  0  0  0  0  0  0  0  0  0  0
   11.5938   -1.7907   26.4016 C   0  0  0  0  0  0  0  0  0  0  0  0
   14.0866   -1.3289   20.4185 H   0  0  0  0  0  0  0  0  0  0  0  0
   15.4978   -0.8074   21.3342 H   0  0  0  0  0  0  0  0  0  0  0  0
   15.5062   -2.3908   20.5669 H   0  0  0  0  0  0  0  0  0  0  0  0
   13.8395   -1.4450   22.9365 H   0  0  0  0  0  0  0  0  0  0  0  0
   15.1345   -2.6063   23.0002 H   0  0  0  0  0  0  0  0  0  0  0  0
   12.4272   -3.1076   21.6438 H   0  0  0  0  0  0  0  0  0  0  0  0
   13.4786   -5.5686   21.7699 H   0  0  0  0  0  0  0  0  0  0  0  0
   14.9778   -4.6772   21.6242 H   0  0  0  0  0  0  0  0  0  0  0  0
   12.6487   -4.8357   19.6753 H   0  0  0  0  0  0  0  0  0  0  0  0
   14.3312   -5.2660   19.4102 H   0  0  0  0  0  0  0  0  0  0  0  0
   13.8629   -3.5631   19.4906 H   0  0  0  0  0  0  0  0  0  0  0  0
   11.8847   -2.0125   23.4517 H   0  0  0  0  0  0  0  0  0  0  0  0
   10.1702   -2.1377   24.9257 H   0  0  0  0  0  0  0  0  0  0  0  0
   10.0096   -4.5752   25.2632 H   0  0  0  0  0  0  0  0  0  0  0  0
   11.3344   -4.5013   26.4008 H   0  0  0  0  0  0  0  0  0  0  0  0
    8.5516   -3.8741   26.7872 H   0  0  0  0  0  0  0  0  0  0  0  0
    9.6844   -4.0991   28.0368 H   0  0  0  0  0  0  0  0  0  0  0  0
    7.2967    0.2682   27.0998 H   0  0  0  0  0  0  0  0  0  0  0  0
    7.3056   -0.9516   25.8534 H   0  0  0  0  0  0  0  0  0  0  0  0
    5.4785    0.8401   25.7205 H   0  0  0  0  0  0  0  0  0  0  0  0
    4.9348   -0.7983   25.5325 H   0  0  0  0  0  0  0  0  0  0  0  0
    4.6039    1.0797   27.8837 H   0  0  0  0  0  0  0  0  0  0  0  0
    3.3530    0.2271   27.0200 H   0  0  0  0  0  0  0  0  0  0  0  0
    3.6521   -2.7660   29.0166 H   0  0  0  0  0  0  0  0  0  0  0  0
    2.7668   -2.0118   27.7212 H   0  0  0  0  0  0  0  0  0  0  0  0
    4.2113   -4.0469   27.1280 H   0  0  0  0  0  0  0  0  0  0  0  0
    4.3813   -2.6746   26.0826 H   0  0  0  0  0  0  0  0  0  0  0  0
    6.3126   -3.7958   28.1002 H   0  0  0  0  0  0  0  0  0  0  0  0
    6.5751   -3.3680   26.4235 H   0  0  0  0  0  0  0  0  0  0  0  0
    5.7493   -1.8235   29.7911 H   0  0  0  0  0  0  0  0  0  0  0  0
    6.1860   -0.1962   29.3392 H   0  0  0  0  0  0  0  0  0  0  0  0
   11.1489   -2.7542   28.3690 H   0  0  0  0  0  0  0  0  0  0  0  0
   10.8948   -1.0893   28.2598 H   0  0  0  0  0  0  0  0  0  0  0  0
   12.6424   -2.0228   26.6220 H   0  0  0  0  0  0  0  0  0  0  0  0
   11.5597   -0.7395   26.0892 H   0  0  0  0  0  0  0  0  0  0  0  0
  1  2  1  0
  2  3  1  0
  3  4  1  0
  4  5  1  0
  3  6  1  0
  6  7  2  0
  6  8  1  0
  8  9  1  0
  9 10  1  0
 10 11  1  0
 11 12  1  0
 12 13  1  0
 13 14  2  0
 13 15  1  0
 15 16  1  0
 16 17  1  0
 17 18  1  0
 18 19  1  0
 19 20  1  0
 20 21  1  0
 21 22  1  0
 19 23  1  0
 12 24  1  0
 24 25  1  0
 25  9  1  0
 22 15  1  0
 23 15  1  0
  1 26  1  0
  1 27  1  0
  1 28  1  0
  2 29  1  0
  2 30  1  0
  3 31  1  0
  4 32  1  0
  4 33  1  0
  5 34  1  0
  5 35  1  0
  5 36  1  0
  8 37  1  0
  9 38  1  0
 10 39  1  0
 10 40  1  0
 11 41  1  0
 11 42  1  0
 16 43  1  0
 16 44  1  0
 17 45  1  0
 17 46  1  0
 18 47  1  0
 18 48  1  0
 20 49  1  0
 20 50  1  0
 21 51  1  0
 21 52  1  0
 22 53  1  0
 22 54  1  0
 23 55  1  0
 23 56  1  0
 24 57  1  0
 24 58  1  0
 25 59  1  0
 25 60  1  0
M  END
>  <Energy>  (736) 
90.88249029103541

>  <compound_id>  (736) 
46681

>  <target_id>  (736) 
1

>  <reference_id>  (736) 
44

>  <inspiration_ids>  (736) 
[27, 44]

>  <energy_score>  (736) 
27.054936711328253

>  <distance_score>  (736) 
7.78191593835516

>  <path>  (736) 
/opt/xchem-fragalysis-2/maxwin/BulkDock/SCRATCH/511023/C46681-P44/C46681-P44.minimised.mol

>  <scratch_subdir>  (736) 
/opt/xchem-fragalysis-2/maxwin/BulkDock/SCRATCH/511023/C46681-P44

>  <fragmenstein_runtime>  (736) 
19.01162624359131

>  <fragmenstein_outcome>  (736) 
too moved

>  <fragmenstein_mode>  (736) 
expansion

>  <fragmenstein_error>  (736) 


$$$$
C46682-P27
     RDKit          3D

 57 59  0  0  0  0  0  0  0  0999 V2000
   15.0783   -0.7645   19.8695 C   0  0  0  0  0  0  0  0  0  0  0  0
   14.7304   -0.9214   21.3450 C   0  0  0  0  0  0  0  0  0  0  0  0
   14.6925   -2.3778   21.8759 C   0  0  0  0  0  0  0  0  0  0  0  0
   13.7844   -3.3491   21.0876 C   0  0  0  0  0  0  0  0  0  0  0  0
   14.4883   -4.1164   19.9701 C   0  0  0  0  0  0  0  0  0  0  0  0
   14.4890   -2.4236   23.4480 C   0  0  0  0  0  0  0  0  0  0  0  0
   15.4019   -2.8846   24.0775 O   0  0  0  0  0  0  0  0  0  0  0  0
   13.2554   -1.8195   23.8864 N   0  0  0  0  0  0  0  0  0  0  0  0
   12.7705   -1.4904   25.2295 C   0  0  0  0  0  0  0  0  0  0  0  0
   11.5658   -2.2567   25.7473 C   0  0  0  0  0  0  0  0  0  0  0  0
   11.0127   -1.6610   27.0916 C   0  0  0  0  0  0  0  0  0  0  0  0
   10.4215   -0.2219   27.1777 N   0  0  0  0  0  0  0  0  0  0  0  0
    9.7138   -0.0454   28.4312 C   0  0  0  0  0  0  0  0  0  0  0  0
   10.1064    0.3572   29.5017 O   0  0  0  0  0  0  0  0  0  0  0  0
    8.1416   -0.3130   28.3891 C   0  0  0  0  0  0  0  0  0  0  0  0
    7.5492   -1.3648   27.4411 C   0  0  0  0  0  0  0  0  0  0  0  0
    5.9998   -1.3161   27.3739 C   0  0  0  0  0  0  0  0  0  0  0  0
    5.3650    0.0595   27.5847 C   0  0  0  0  0  0  0  0  0  0  0  0
    6.0895    0.9170   28.5313 N   0  0  0  0  0  0  0  0  0  0  0  0
    6.2223    0.2605   29.8432 C   0  0  0  0  0  0  0  0  0  0  0  0
    7.5207   -0.5589   29.7998 C   0  0  0  0  0  0  0  0  0  0  0  0
    7.4902    1.0515   28.0773 C   0  0  0  0  0  0  0  0  0  0  0  0
   11.8320    0.1452   26.7857 C   0  0  0  0  0  0  0  0  0  0  0  0
   12.3353   -0.0492   25.3471 C   0  0  0  0  0  0  0  0  0  0  0  0
   14.3090   -1.1919   19.2231 H   0  0  0  0  0  0  0  0  0  0  0  0
   15.1676    0.2974   19.6179 H   0  0  0  0  0  0  0  0  0  0  0  0
   16.0349   -1.2449   19.6419 H   0  0  0  0  0  0  0  0  0  0  0  0
   13.7899   -0.4004   21.5348 H   0  0  0  0  0  0  0  0  0  0  0  0
   15.4801   -0.3713   21.9296 H   0  0  0  0  0  0  0  0  0  0  0  0
   15.7197   -2.7541   21.7455 H   0  0  0  0  0  0  0  0  0  0  0  0
   13.3411   -4.0790   21.7755 H   0  0  0  0  0  0  0  0  0  0  0  0
   12.9650   -2.8244   20.6128 H   0  0  0  0  0  0  0  0  0  0  0  0
   13.7782   -4.7826   19.4690 H   0  0  0  0  0  0  0  0  0  0  0  0
   14.9109   -3.4500   19.2152 H   0  0  0  0  0  0  0  0  0  0  0  0
   15.2975   -4.7324   20.3752 H   0  0  0  0  0  0  0  0  0  0  0  0
   12.6749   -1.6155   23.0679 H   0  0  0  0  0  0  0  0  0  0  0  0
   13.6152   -1.6727   25.9063 H   0  0  0  0  0  0  0  0  0  0  0  0
   11.8160   -3.3145   25.8845 H   0  0  0  0  0  0  0  0  0  0  0  0
   10.7645   -2.2030   25.0243 H   0  0  0  0  0  0  0  0  0  0  0  0
   10.1573   -2.3043   27.3405 H   0  0  0  0  0  0  0  0  0  0  0  0
   11.6969   -1.8567   27.9361 H   0  0  0  0  0  0  0  0  0  0  0  0
    7.9841   -1.2678   26.4470 H   0  0  0  0  0  0  0  0  0  0  0  0
    7.8481   -2.3697   27.7667 H   0  0  0  0  0  0  0  0  0  0  0  0
    5.6060   -2.0036   28.1337 H   0  0  0  0  0  0  0  0  0  0  0  0
    5.6603   -1.6946   26.4073 H   0  0  0  0  0  0  0  0  0  0  0  0
    5.2959    0.5845   26.6279 H   0  0  0  0  0  0  0  0  0  0  0  0
    4.3257   -0.0635   27.9146 H   0  0  0  0  0  0  0  0  0  0  0  0
    5.3527   -0.3501   30.1119 H   0  0  0  0  0  0  0  0  0  0  0  0
    6.3100    1.0345   30.6155 H   0  0  0  0  0  0  0  0  0  0  0  0
    7.3226   -1.6233   29.9726 H   0  0  0  0  0  0  0  0  0  0  0  0
    8.1715   -0.2325   30.6177 H   0  0  0  0  0  0  0  0  0  0  0  0
    7.5719    1.3260   27.0222 H   0  0  0  0  0  0  0  0  0  0  0  0
    7.9686    1.8656   28.6392 H   0  0  0  0  0  0  0  0  0  0  0  0
   11.7802    1.2409   26.8934 H   0  0  0  0  0  0  0  0  0  0  0  0
   12.5812   -0.0921   27.5617 H   0  0  0  0  0  0  0  0  0  0  0  0
   13.1858    0.6149   25.1527 H   0  0  0  0  0  0  0  0  0  0  0  0
   11.5509    0.2039   24.6230 H   0  0  0  0  0  0  0  0  0  0  0  0
  1  2  1  0
  2  3  1  0
  3  4  1  0
  4  5  1  0
  3  6  1  0
  6  7  2  0
  6  8  1  0
  8  9  1  0
  9 10  1  0
 10 11  1  0
 11 12  1  0
 12 13  1  0
 13 14  2  0
 13 15  1  0
 15 16  1  0
 16 17  1  0
 17 18  1  0
 18 19  1  0
 19 20  1  0
 20 21  1  0
 19 22  1  0
 12 23  1  0
 23 24  1  0
 24  9  1  0
 21 15  1  0
 22 15  1  0
  1 25  1  0
  1 26  1  0
  1 27  1  0
  2 28  1  0
  2 29  1  0
  3 30  1  0
  4 31  1  0
  4 32  1  0
  5 33  1  0
  5 34  1  0
  5 35  1  0
  8 36  1  0
  9 37  1  0
 10 38  1  0
 10 39  1  0
 11 40  1  0
 11 41  1  0
 16 42  1  0
 16 43  1  0
 17 44  1  0
 17 45  1  0
 18 46  1  0
 18 47  1  0
 20 48  1  0
 20 49  1  0
 21 50  1  0
 21 51  1  0
 22 52  1  0
 22 53  1  0
 23 54  1  0
 23 55  1  0
 24 56  1  0
 24 57  1  0
M  END
>  <Energy>  (737) 
88.518554736603562

>  <compound_id>  (737) 
46682

>  <target_id>  (737) 
1

>  <reference_id>  (737) 
27

>  <inspiration_ids>  (737) 
[27, 44]

>  <energy_score>  (737) 
17.28124097022186

>  <distance_score>  (737) 
8.050140232271756

>  <path>  (737) 
/opt/xchem-fragalysis-2/maxwin/BulkDock/SCRATCH/511023/C46682-P27/C46682-P27.minimised.mol

>  <scratch_subdir>  (737) 
/opt/xchem-fragalysis-2/maxwin/BulkDock/SCRATCH/511023/C46682-P27

>  <fragmenstein_runtime>  (737) 
16.858915090560913

>  <fragmenstein_outcome>  (737) 
too moved

>  <fragmenstein_mode>  (737) 
expansion

>  <fragmenstein_error>  (737) 


$$$$
C46682-P44
     RDKit          3D

 57 59  0  0  0  0  0  0  0  0999 V2000
   15.3679   -1.0406   20.8726 C   0  0  0  0  0  0  0  0  0  0  0  0
   14.4011   -1.5435   21.9424 C   0  0  0  0  0  0  0  0  0  0  0  0
   14.1098   -3.0770   22.0011 C   0  0  0  0  0  0  0  0  0  0  0  0
   14.1690   -3.6639   20.5523 C   0  0  0  0  0  0  0  0  0  0  0  0
   13.9809   -5.1629   20.4140 C   0  0  0  0  0  0  0  0  0  0  0  0
   12.7406   -3.3899   22.7426 C   0  0  0  0  0  0  0  0  0  0  0  0
   11.9458   -4.0726   22.1640 O   0  0  0  0  0  0  0  0  0  0  0  0
   12.6410   -2.6941   24.0065 N   0  0  0  0  0  0  0  0  0  0  0  0
   11.5108   -2.5262   24.9228 C   0  0  0  0  0  0  0  0  0  0  0  0
   11.4375   -1.1425   25.5279 C   0  0  0  0  0  0  0  0  0  0  0  0
   10.3104   -1.0054   26.6059 C   0  0  0  0  0  0  0  0  0  0  0  0
    9.4226   -2.1495   27.1300 N   0  0  0  0  0  0  0  0  0  0  0  0
    8.4996   -1.6478   28.1344 C   0  0  0  0  0  0  0  0  0  0  0  0
    8.6171   -1.5684   29.3350 O   0  0  0  0  0  0  0  0  0  0  0  0
    7.0565   -1.2326   27.5899 C   0  0  0  0  0  0  0  0  0  0  0  0
    6.9811   -0.0300   26.6262 C   0  0  0  0  0  0  0  0  0  0  0  0
    5.5377    0.3319   26.2127 C   0  0  0  0  0  0  0  0  0  0  0  0
    4.5313    0.2125   27.3595 C   0  0  0  0  0  0  0  0  0  0  0  0
    4.7649   -0.9451   28.2380 N   0  0  0  0  0  0  0  0  0  0  0  0
    4.8021   -2.2111   27.4840 C   0  0  0  0  0  0  0  0  0  0  0  0
    6.2585   -2.4279   27.0345 C   0  0  0  0  0  0  0  0  0  0  0  0
    6.1357   -0.8642   28.7886 C   0  0  0  0  0  0  0  0  0  0  0  0
   10.7640   -2.8293   27.2788 C   0  0  0  0  0  0  0  0  0  0  0  0
   11.4064   -3.5156   26.0517 C   0  0  0  0  0  0  0  0  0  0  0  0
   16.3308   -1.5560   20.9419 H   0  0  0  0  0  0  0  0  0  0  0  0
   14.9636   -1.1702   19.8650 H   0  0  0  0  0  0  0  0  0  0  0  0
   15.5515    0.0300   21.0130 H   0  0  0  0  0  0  0  0  0  0  0  0
   13.4740   -0.9875   21.8118 H   0  0  0  0  0  0  0  0  0  0  0  0
   14.7979   -1.2319   22.9167 H   0  0  0  0  0  0  0  0  0  0  0  0
   14.8987   -3.5625   22.5905 H   0  0  0  0  0  0  0  0  0  0  0  0
   13.4441   -3.1724   19.9018 H   0  0  0  0  0  0  0  0  0  0  0  0
   15.1606   -3.4555   20.1339 H   0  0  0  0  0  0  0  0  0  0  0  0
   14.2681   -5.4765   19.4057 H   0  0  0  0  0  0  0  0  0  0  0  0
   14.6099   -5.7053   21.1265 H   0  0  0  0  0  0  0  0  0  0  0  0
   12.9436   -5.4696   20.5614 H   0  0  0  0  0  0  0  0  0  0  0  0
   13.5365   -2.2811   24.2268 H   0  0  0  0  0  0  0  0  0  0  0  0
   10.6264   -2.6718   24.3062 H   0  0  0  0  0  0  0  0  0  0  0  0
   11.3022   -0.3715   24.7615 H   0  0  0  0  0  0  0  0  0  0  0  0
   12.3972   -0.9002   26.0061 H   0  0  0  0  0  0  0  0  0  0  0  0
   10.6817   -0.4154   27.4630 H   0  0  0  0  0  0  0  0  0  0  0  0
    9.5938   -0.3118   26.1534 H   0  0  0  0  0  0  0  0  0  0  0  0
    7.4513    0.8424   27.0976 H   0  0  0  0  0  0  0  0  0  0  0  0
    7.5554   -0.2415   25.7229 H   0  0  0  0  0  0  0  0  0  0  0  0
    5.2236   -0.3326   25.3987 H   0  0  0  0  0  0  0  0  0  0  0  0
    5.5165    1.3471   25.8008 H   0  0  0  0  0  0  0  0  0  0  0  0
    4.5668    1.1256   27.9674 H   0  0  0  0  0  0  0  0  0  0  0  0
    3.5137    0.1686   26.9524 H   0  0  0  0  0  0  0  0  0  0  0  0
    4.1016   -2.2293   26.6423 H   0  0  0  0  0  0  0  0  0  0  0  0
    4.5065   -3.0294   28.1519 H   0  0  0  0  0  0  0  0  0  0  0  0
    6.3170   -2.4779   25.9452 H   0  0  0  0  0  0  0  0  0  0  0  0
    6.6345   -3.3781   27.4317 H   0  0  0  0  0  0  0  0  0  0  0  0
    6.2193   -1.5875   29.6111 H   0  0  0  0  0  0  0  0  0  0  0  0
    6.3600    0.1218   29.2148 H   0  0  0  0  0  0  0  0  0  0  0  0
   10.5055   -3.6683   27.9451 H   0  0  0  0  0  0  0  0  0  0  0  0
   11.4859   -2.2945   27.9237 H   0  0  0  0  0  0  0  0  0  0  0  0
   12.3913   -3.9037   26.3372 H   0  0  0  0  0  0  0  0  0  0  0  0
   10.8052   -4.3782   25.7391 H   0  0  0  0  0  0  0  0  0  0  0  0
  1  2  1  0
  2  3  1  0
  3  4  1  0
  4  5  1  0
  3  6  1  0
  6  7  2  0
  6  8  1  0
  8  9  1  0
  9 10  1  0
 10 11  1  0
 11 12  1  0
 12 13  1  0
 13 14  2  0
 13 15  1  0
 15 16  1  0
 16 17  1  0
 17 18  1  0
 18 19  1  0
 19 20  1  0
 20 21  1  0
 19 22  1  0
 12 23  1  0
 23 24  1  0
 24  9  1  0
 21 15  1  0
 22 15  1  0
  1 25  1  0
  1 26  1  0
  1 27  1  0
  2 28  1  0
  2 29  1  0
  3 30  1  0
  4 31  1  0
  4 32  1  0
  5 33  1  0
  5 34  1  0
  5 35  1  0
  8 36  1  0
  9 37  1  0
 10 38  1  0
 10 39  1  0
 11 40  1  0
 11 41  1  0
 16 42  1  0
 16 43  1  0
 17 44  1  0
 17 45  1  0
 18 46  1  0
 18 47  1  0
 20 48  1  0
 20 49  1  0
 21 50  1  0
 21 51  1  0
 22 52  1  0
 22 53  1  0
 23 54  1  0
 23 55  1  0
 24 56  1  0
 24 57  1  0
M  END
>  <Energy>  (738) 
92.012900895522279

>  <compound_id>  (738) 
46682

>  <target_id>  (738) 
1

>  <reference_id>  (738) 
44

>  <inspiration_ids>  (738) 
[27, 44]

>  <energy_score>  (738) 
20.77558712913867

>  <distance_score>  (738) 
7.647392506672729

>  <path>  (738) 
/opt/xchem-fragalysis-2/maxwin/BulkDock/SCRATCH/511023/C46682-P44/C46682-P44.minimised.mol

>  <scratch_subdir>  (738) 
/opt/xchem-fragalysis-2/maxwin/BulkDock/SCRATCH/511023/C46682-P44

>  <fragmenstein_runtime>  (738) 
16.839900016784668

>  <fragmenstein_outcome>  (738) 
too moved

>  <fragmenstein_mode>  (738) 
expansion

>  <fragmenstein_error>  (738) 


$$$$
C46680-P27
     RDKit          3D

 54 56  0  0  0  0  0  0  0  0999 V2000
   14.6744   -1.1319   21.9245 C   0  0  0  0  0  0  0  0  0  0  0  0
   15.1631    0.0503   22.7476 C   0  0  0  0  0  0  0  0  0  0  0  0
   14.1578    1.1613   23.1194 C   0  0  0  0  0  0  0  0  0  0  0  0
   13.2507    1.6277   21.9695 C   0  0  0  0  0  0  0  0  0  0  0  0
   13.9958    2.0176   20.6925 C   0  0  0  0  0  0  0  0  0  0  0  0
   13.3630    0.9475   24.4611 C   0  0  0  0  0  0  0  0  0  0  0  0
   13.5591    1.7315   25.3463 O   0  0  0  0  0  0  0  0  0  0  0  0
   12.4924   -0.1865   24.3941 N   0  0  0  0  0  0  0  0  0  0  0  0
   11.4998   -0.6920   25.3402 C   0  0  0  0  0  0  0  0  0  0  0  0
   10.2070    0.1029   25.3211 C   0  0  0  0  0  0  0  0  0  0  0  0
    9.9225    0.9194   26.5929 C   0  0  0  0  0  0  0  0  0  0  0  0
    9.7568    0.0832   27.8517 N   0  0  0  0  0  0  0  0  0  0  0  0
    8.8749    0.7498   28.7840 C   0  0  0  0  0  0  0  0  0  0  0  0
    9.1203    1.5267   29.6748 O   0  0  0  0  0  0  0  0  0  0  0  0
    7.3739    0.3456   28.6138 C   0  0  0  0  0  0  0  0  0  0  0  0
    7.0016   -1.0290   28.0524 C   0  0  0  0  0  0  0  0  0  0  0  0
    5.5580   -1.2134   28.5446 C   0  0  0  0  0  0  0  0  0  0  0  0
    5.2935   -0.0211   29.4014 N   0  0  0  0  0  0  0  0  0  0  0  0
    5.0974    1.1457   28.5104 C   0  0  0  0  0  0  0  0  0  0  0  0
    6.4929    1.4119   27.9386 C   0  0  0  0  0  0  0  0  0  0  0  0
    6.6458    0.2648   29.9632 C   0  0  0  0  0  0  0  0  0  0  0  0
   11.2773    0.0591   27.7674 C   0  0  0  0  0  0  0  0  0  0  0  0
   11.9550   -0.8997   26.7703 C   0  0  0  0  0  0  0  0  0  0  0  0
   14.0521   -1.7949   22.5300 H   0  0  0  0  0  0  0  0  0  0  0  0
   14.1252   -0.8381   21.0296 H   0  0  0  0  0  0  0  0  0  0  0  0
   15.5340   -1.7270   21.5963 H   0  0  0  0  0  0  0  0  0  0  0  0
   15.6209   -0.3360   23.6670 H   0  0  0  0  0  0  0  0  0  0  0  0
   15.9809    0.5175   22.1826 H   0  0  0  0  0  0  0  0  0  0  0  0
   14.7964    2.0293   23.3539 H   0  0  0  0  0  0  0  0  0  0  0  0
   12.6819    2.5019   22.3128 H   0  0  0  0  0  0  0  0  0  0  0  0
   12.5066    0.8634   21.7658 H   0  0  0  0  0  0  0  0  0  0  0  0
   14.8130    2.7096   20.9216 H   0  0  0  0  0  0  0  0  0  0  0  0
   14.4176    1.1540   20.1743 H   0  0  0  0  0  0  0  0  0  0  0  0
   13.3245    2.5303   19.9975 H   0  0  0  0  0  0  0  0  0  0  0  0
   12.5238   -0.5743   23.4497 H   0  0  0  0  0  0  0  0  0  0  0  0
   11.2990   -1.6923   24.9387 H   0  0  0  0  0  0  0  0  0  0  0  0
    9.3946   -0.6264   25.2607 H   0  0  0  0  0  0  0  0  0  0  0  0
   10.1393    0.7494   24.4393 H   0  0  0  0  0  0  0  0  0  0  0  0
   10.5159    1.8446   26.6906 H   0  0  0  0  0  0  0  0  0  0  0  0
    8.9226    1.3435   26.4180 H   0  0  0  0  0  0  0  0  0  0  0  0
    7.6506   -1.8125   28.4619 H   0  0  0  0  0  0  0  0  0  0  0  0
    7.0665   -1.0776   26.9641 H   0  0  0  0  0  0  0  0  0  0  0  0
    4.8411   -1.3036   27.7207 H   0  0  0  0  0  0  0  0  0  0  0  0
    5.4780   -2.1247   29.1486 H   0  0  0  0  0  0  0  0  0  0  0  0
    4.7533    2.0067   29.0958 H   0  0  0  0  0  0  0  0  0  0  0  0
    4.3492    0.9629   27.7310 H   0  0  0  0  0  0  0  0  0  0  0  0
    6.4902    1.2656   26.8667 H   0  0  0  0  0  0  0  0  0  0  0  0
    6.8278    2.4310   28.1596 H   0  0  0  0  0  0  0  0  0  0  0  0
    6.6594    1.1950   30.5454 H   0  0  0  0  0  0  0  0  0  0  0  0
    7.0049   -0.5453   30.6105 H   0  0  0  0  0  0  0  0  0  0  0  0
   11.7697    1.0432   27.8527 H   0  0  0  0  0  0  0  0  0  0  0  0
   11.5313   -0.3588   28.7553 H   0  0  0  0  0  0  0  0  0  0  0  0
   13.0446   -0.8302   26.8654 H   0  0  0  0  0  0  0  0  0  0  0  0
   11.6855   -1.9217   27.0703 H   0  0  0  0  0  0  0  0  0  0  0  0
  1  2  1  0
  2  3  1  0
  3  4  1  0
  4  5  1  0
  3  6  1  0
  6  7  2  0
  6  8  1  0
  8  9  1  0
  9 10  1  0
 10 11  1  0
 11 12  1  0
 12 13  1  0
 13 14  2  0
 13 15  1  0
 15 16  1  0
 16 17  1  0
 17 18  1  0
 18 19  1  0
 19 20  1  0
 18 21  1  0
 12 22  1  0
 22 23  1  0
 23  9  1  0
 20 15  1  0
 21 15  1  0
  1 24  1  0
  1 25  1  0
  1 26  1  0
  2 27  1  0
  2 28  1  0
  3 29  1  0
  4 30  1  0
  4 31  1  0
  5 32  1  0
  5 33  1  0
  5 34  1  0
  8 35  1  0
  9 36  1  0
 10 37  1  0
 10 38  1  0
 11 39  1  0
 11 40  1  0
 16 41  1  0
 16 42  1  0
 17 43  1  0
 17 44  1  0
 19 45  1  0
 19 46  1  0
 20 47  1  0
 20 48  1  0
 21 49  1  0
 21 50  1  0
 22 51  1  0
 22 52  1  0
 23 53  1  0
 23 54  1  0
M  END
>  <Energy>  (739) 
78.627101637961488

>  <compound_id>  (739) 
46680

>  <target_id>  (739) 
1

>  <reference_id>  (739) 
27

>  <inspiration_ids>  (739) 
[27, 44]

>  <energy_score>  (739) 
32.62433369552883

>  <distance_score>  (739) 
8.725358694279448

>  <path>  (739) 
/opt/xchem-fragalysis-2/maxwin/BulkDock/SCRATCH/511023/C46680-P27/C46680-P27.minimised.mol

>  <scratch_subdir>  (739) 
/opt/xchem-fragalysis-2/maxwin/BulkDock/SCRATCH/511023/C46680-P27

>  <fragmenstein_runtime>  (739) 
16.733732223510742

>  <fragmenstein_outcome>  (739) 
too moved

>  <fragmenstein_mode>  (739) 
expansion

>  <fragmenstein_error>  (739) 


$$$$
C46680-P44
     RDKit          3D

 54 56  0  0  0  0  0  0  0  0999 V2000
   15.4419    1.0309   20.4666 C   0  0  0  0  0  0  0  0  0  0  0  0
   15.1168    1.2141   21.9408 C   0  0  0  0  0  0  0  0  0  0  0  0
   14.1538    0.1673   22.5542 C   0  0  0  0  0  0  0  0  0  0  0  0
   14.7375   -1.2583   22.5153 C   0  0  0  0  0  0  0  0  0  0  0  0
   14.3402   -2.0903   21.2978 C   0  0  0  0  0  0  0  0  0  0  0  0
   13.7441    0.6028   24.0059 C   0  0  0  0  0  0  0  0  0  0  0  0
   14.4782    1.3227   24.6210 O   0  0  0  0  0  0  0  0  0  0  0  0
   12.4656    0.0355   24.3625 N   0  0  0  0  0  0  0  0  0  0  0  0
   11.6301    0.2343   25.5299 C   0  0  0  0  0  0  0  0  0  0  0  0
   10.4685    1.1854   25.3087 C   0  0  0  0  0  0  0  0  0  0  0  0
    9.5863    1.2400   26.5964 C   0  0  0  0  0  0  0  0  0  0  0  0
    8.7061    0.0407   27.0036 N   0  0  0  0  0  0  0  0  0  0  0  0
    7.7103    0.4577   27.9708 C   0  0  0  0  0  0  0  0  0  0  0  0
    7.7506    0.4750   29.1773 O   0  0  0  0  0  0  0  0  0  0  0  0
    6.3337    0.8468   27.3518 C   0  0  0  0  0  0  0  0  0  0  0  0
    6.1725    2.2126   26.6811 C   0  0  0  0  0  0  0  0  0  0  0  0
    4.6556    2.4513   26.7628 C   0  0  0  0  0  0  0  0  0  0  0  0
    4.1295    1.2879   27.5217 N   0  0  0  0  0  0  0  0  0  0  0  0
    4.1640    0.0988   26.6347 C   0  0  0  0  0  0  0  0  0  0  0  0
    5.6558   -0.2188   26.4821 C   0  0  0  0  0  0  0  0  0  0  0  0
    5.2559    0.9956   28.4464 C   0  0  0  0  0  0  0  0  0  0  0  0
   10.0621   -0.6087   27.2015 C   0  0  0  0  0  0  0  0  0  0  0  0
   10.9660   -1.0253   26.0298 C   0  0  0  0  0  0  0  0  0  0  0  0
   16.0018    0.1093   20.2883 H   0  0  0  0  0  0  0  0  0  0  0  0
   14.5324    1.0191   19.8717 H   0  0  0  0  0  0  0  0  0  0  0  0
   16.0605    1.8631   20.1148 H   0  0  0  0  0  0  0  0  0  0  0  0
   16.0567    1.2272   22.5072 H   0  0  0  0  0  0  0  0  0  0  0  0
   14.6750    2.2114   22.0669 H   0  0  0  0  0  0  0  0  0  0  0  0
   13.2459    0.1976   21.9620 H   0  0  0  0  0  0  0  0  0  0  0  0
   14.4365   -1.8151   23.4114 H   0  0  0  0  0  0  0  0  0  0  0  0
   15.8325   -1.2031   22.5590 H   0  0  0  0  0  0  0  0  0  0  0  0
   15.0220   -2.9409   21.1928 H   0  0  0  0  0  0  0  0  0  0  0  0
   13.3410   -2.5057   21.4432 H   0  0  0  0  0  0  0  0  0  0  0  0
   14.3663   -1.5201   20.3681 H   0  0  0  0  0  0  0  0  0  0  0  0
   12.0859   -0.4655   23.5549 H   0  0  0  0  0  0  0  0  0  0  0  0
   12.2835    0.6469   26.3095 H   0  0  0  0  0  0  0  0  0  0  0  0
   10.8449    2.1899   25.0812 H   0  0  0  0  0  0  0  0  0  0  0  0
    9.8632    0.8710   24.4524 H   0  0  0  0  0  0  0  0  0  0  0  0
   10.1202    1.6744   27.4601 H   0  0  0  0  0  0  0  0  0  0  0  0
    8.8535    2.0265   26.3700 H   0  0  0  0  0  0  0  0  0  0  0  0
    6.5263    2.2192   25.6491 H   0  0  0  0  0  0  0  0  0  0  0  0
    6.7162    2.9900   27.2308 H   0  0  0  0  0  0  0  0  0  0  0  0
    4.1939    2.5483   25.7736 H   0  0  0  0  0  0  0  0  0  0  0  0
    4.4473    3.3773   27.3115 H   0  0  0  0  0  0  0  0  0  0  0  0
    3.6744    0.2804   25.6719 H   0  0  0  0  0  0  0  0  0  0  0  0
    3.6411   -0.7375   27.1135 H   0  0  0  0  0  0  0  0  0  0  0  0
    5.9665   -0.1297   25.4428 H   0  0  0  0  0  0  0  0  0  0  0  0
    5.8795   -1.2339   26.8286 H   0  0  0  0  0  0  0  0  0  0  0  0
    5.4389    1.8209   29.1467 H   0  0  0  0  0  0  0  0  0  0  0  0
    5.0842    0.0831   29.0321 H   0  0  0  0  0  0  0  0  0  0  0  0
    9.7504   -1.5707   27.6398 H   0  0  0  0  0  0  0  0  0  0  0  0
   10.6194   -0.1764   28.0517 H   0  0  0  0  0  0  0  0  0  0  0  0
   11.7258   -1.7362   26.3757 H   0  0  0  0  0  0  0  0  0  0  0  0
   10.3858   -1.5306   25.2528 H   0  0  0  0  0  0  0  0  0  0  0  0
  1  2  1  0
  2  3  1  0
  3  4  1  0
  4  5  1  0
  3  6  1  0
  6  7  2  0
  6  8  1  0
  8  9  1  0
  9 10  1  0
 10 11  1  0
 11 12  1  0
 12 13  1  0
 13 14  2  0
 13 15  1  0
 15 16  1  0
 16 17  1  0
 17 18  1  0
 18 19  1  0
 19 20  1  0
 18 21  1  0
 12 22  1  0
 22 23  1  0
 23  9  1  0
 20 15  1  0
 21 15  1  0
  1 24  1  0
  1 25  1  0
  1 26  1  0
  2 27  1  0
  2 28  1  0
  3 29  1  0
  4 30  1  0
  4 31  1  0
  5 32  1  0
  5 33  1  0
  5 34  1  0
  8 35  1  0
  9 36  1  0
 10 37  1  0
 10 38  1  0
 11 39  1  0
 11 40  1  0
 16 41  1  0
 16 42  1  0
 17 43  1  0
 17 44  1  0
 19 45  1  0
 19 46  1  0
 20 47  1  0
 20 48  1  0
 21 49  1  0
 21 50  1  0
 22 51  1  0
 22 52  1  0
 23 53  1  0
 23 54  1  0
M  END
>  <Energy>  (740) 
77.420420706413992

>  <compound_id>  (740) 
46680

>  <target_id>  (740) 
1

>  <reference_id>  (740) 
44

>  <inspiration_ids>  (740) 
[27, 44]

>  <energy_score>  (740) 
31.41765276397757

>  <distance_score>  (740) 
8.14863972134972

>  <path>  (740) 
/opt/xchem-fragalysis-2/maxwin/BulkDock/SCRATCH/511023/C46680-P44/C46680-P44.minimised.mol

>  <scratch_subdir>  (740) 
/opt/xchem-fragalysis-2/maxwin/BulkDock/SCRATCH/511023/C46680-P44

>  <fragmenstein_runtime>  (740) 
18.124797821044922

>  <fragmenstein_outcome>  (740) 
too moved

>  <fragmenstein_mode>  (740) 
expansion

>  <fragmenstein_error>  (740) 


$$$$
C46681-P27
     RDKit          3D

 60 62  0  0  0  0  0  0  0  0999 V2000
   14.6905    0.7235   20.2066 C   0  0  0  0  0  0  0  0  0  0  0  0
   14.1234    0.4716   21.5991 C   0  0  0  0  0  0  0  0  0  0  0  0
   14.6965   -0.7293   22.3818 C   0  0  0  0  0  0  0  0  0  0  0  0
   14.5047   -2.1744   21.8659 C   0  0  0  0  0  0  0  0  0  0  0  0
   14.7288   -2.4409   20.3840 C   0  0  0  0  0  0  0  0  0  0  0  0
   14.3472   -0.6059   23.9147 C   0  0  0  0  0  0  0  0  0  0  0  0
   15.2871   -0.4565   24.6474 O   0  0  0  0  0  0  0  0  0  0  0  0
   12.9278   -0.6101   24.1914 N   0  0  0  0  0  0  0  0  0  0  0  0
   12.1981   -0.5302   25.4567 C   0  0  0  0  0  0  0  0  0  0  0  0
   11.0209    0.4247   25.5194 C   0  0  0  0  0  0  0  0  0  0  0  0
   10.4145    0.3884   26.9691 C   0  0  0  0  0  0  0  0  0  0  0  0
    9.5895   -0.8254   27.4566 N   0  0  0  0  0  0  0  0  0  0  0  0
    8.8176   -0.4669   28.6514 C   0  0  0  0  0  0  0  0  0  0  0  0
    9.1045   -0.5516   29.8230 O   0  0  0  0  0  0  0  0  0  0  0  0
    7.3118    0.0140   28.3748 C   0  0  0  0  0  0  0  0  0  0  0  0
    7.2740    1.4437   27.7953 C   0  0  0  0  0  0  0  0  0  0  0  0
    5.9765    2.2290   28.0778 C   0  0  0  0  0  0  0  0  0  0  0  0
    4.7827    1.3430   28.4166 C   0  0  0  0  0  0  0  0  0  0  0  0
    5.0655    0.3442   29.4673 N   0  0  0  0  0  0  0  0  0  0  0  0
    4.4935   -0.9558   29.0792 C   0  0  0  0  0  0  0  0  0  0  0  0
    5.4701   -1.8247   28.2719 C   0  0  0  0  0  0  0  0  0  0  0  0
    6.5388   -1.0226   27.5003 C   0  0  0  0  0  0  0  0  0  0  0  0
    6.5186    0.1543   29.7161 C   0  0  0  0  0  0  0  0  0  0  0  0
   10.9386   -1.5179   27.3213 C   0  0  0  0  0  0  0  0  0  0  0  0
   11.6194   -1.8269   25.9683 C   0  0  0  0  0  0  0  0  0  0  0  0
   14.2769    0.0425   19.4622 H   0  0  0  0  0  0  0  0  0  0  0  0
   14.4322    1.7374   19.8819 H   0  0  0  0  0  0  0  0  0  0  0  0
   15.7813    0.6391   20.2010 H   0  0  0  0  0  0  0  0  0  0  0  0
   13.0379    0.4368   21.5540 H   0  0  0  0  0  0  0  0  0  0  0  0
   14.3401    1.3729   22.1905 H   0  0  0  0  0  0  0  0  0  0  0  0
   15.7876   -0.5736   22.3473 H   0  0  0  0  0  0  0  0  0  0  0  0
   15.2339   -2.7925   22.4106 H   0  0  0  0  0  0  0  0  0  0  0  0
   13.5478   -2.5981   22.1747 H   0  0  0  0  0  0  0  0  0  0  0  0
   14.7594   -3.5211   20.2043 H   0  0  0  0  0  0  0  0  0  0  0  0
   15.6825   -2.0235   20.0480 H   0  0  0  0  0  0  0  0  0  0  0  0
   13.9247   -2.0416   19.7720 H   0  0  0  0  0  0  0  0  0  0  0  0
   12.4216   -0.8513   23.3343 H   0  0  0  0  0  0  0  0  0  0  0  0
   12.9507   -0.1876   26.1804 H   0  0  0  0  0  0  0  0  0  0  0  0
   11.3567    1.4437   25.2938 H   0  0  0  0  0  0  0  0  0  0  0  0
   10.2488    0.1707   24.7859 H   0  0  0  0  0  0  0  0  0  0  0  0
   11.1287    0.7349   27.7368 H   0  0  0  0  0  0  0  0  0  0  0  0
    9.6927    1.2100   26.9519 H   0  0  0  0  0  0  0  0  0  0  0  0
    8.0941    2.0342   28.2264 H   0  0  0  0  0  0  0  0  0  0  0  0
    7.4898    1.4052   26.7341 H   0  0  0  0  0  0  0  0  0  0  0  0
    5.7390    2.8736   27.2242 H   0  0  0  0  0  0  0  0  0  0  0  0
    6.1585    2.9085   28.9215 H   0  0  0  0  0  0  0  0  0  0  0  0
    3.9534    1.9720   28.7609 H   0  0  0  0  0  0  0  0  0  0  0  0
    4.4367    0.8824   27.4823 H   0  0  0  0  0  0  0  0  0  0  0  0
    4.2250   -1.5021   29.9925 H   0  0  0  0  0  0  0  0  0  0  0  0
    3.5465   -0.8316   28.5382 H   0  0  0  0  0  0  0  0  0  0  0  0
    5.9816   -2.5226   28.9473 H   0  0  0  0  0  0  0  0  0  0  0  0
    4.8868   -2.4329   27.5746 H   0  0  0  0  0  0  0  0  0  0  0  0
    7.2240   -1.7288   27.0209 H   0  0  0  0  0  0  0  0  0  0  0  0
    6.0139   -0.5098   26.6918 H   0  0  0  0  0  0  0  0  0  0  0  0
    6.6726   -0.7121   30.3745 H   0  0  0  0  0  0  0  0  0  0  0  0
    6.8968    1.0049   30.3004 H   0  0  0  0  0  0  0  0  0  0  0  0
   11.6532   -1.1791   28.0923 H   0  0  0  0  0  0  0  0  0  0  0  0
   10.6800   -2.5155   27.7116 H   0  0  0  0  0  0  0  0  0  0  0  0
   10.9004   -2.2530   25.2695 H   0  0  0  0  0  0  0  0  0  0  0  0
   12.4154   -2.5670   26.1104 H   0  0  0  0  0  0  0  0  0  0  0  0
  1  2  1  0
  2  3  1  0
  3  4  1  0
  4  5  1  0
  3  6  1  0
  6  7  2  0
  6  8  1  0
  8  9  1  0
  9 10  1  0
 10 11  1  0
 11 12  1  0
 12 13  1  0
 13 14  2  0
 13 15  1  0
 15 16  1  0
 16 17  1  0
 17 18  1  0
 18 19  1  0
 19 20  1  0
 20 21  1  0
 21 22  1  0
 19 23  1  0
 12 24  1  0
 24 25  1  0
 25  9  1  0
 22 15  1  0
 23 15  1  0
  1 26  1  0
  1 27  1  0
  1 28  1  0
  2 29  1  0
  2 30  1  0
  3 31  1  0
  4 32  1  0
  4 33  1  0
  5 34  1  0
  5 35  1  0
  5 36  1  0
  8 37  1  0
  9 38  1  0
 10 39  1  0
 10 40  1  0
 11 41  1  0
 11 42  1  0
 16 43  1  0
 16 44  1  0
 17 45  1  0
 17 46  1  0
 18 47  1  0
 18 48  1  0
 20 49  1  0
 20 50  1  0
 21 51  1  0
 21 52  1  0
 22 53  1  0
 22 54  1  0
 23 55  1  0
 23 56  1  0
 24 57  1  0
 24 58  1  0
 25 59  1  0
 25 60  1  0
M  END
>  <Energy>  (741) 
102.81539946946003

>  <compound_id>  (741) 
46681

>  <target_id>  (741) 
1

>  <reference_id>  (741) 
27

>  <inspiration_ids>  (741) 
[27, 44]

>  <energy_score>  (741) 
38.98784588975798

>  <distance_score>  (741) 
7.891521203547208

>  <path>  (741) 
/opt/xchem-fragalysis-2/maxwin/BulkDock/SCRATCH/511023/C46681-P27/C46681-P27.minimised.mol

>  <scratch_subdir>  (741) 
/opt/xchem-fragalysis-2/maxwin/BulkDock/SCRATCH/511023/C46681-P27

>  <fragmenstein_runtime>  (741) 
27.11908721923828

>  <fragmenstein_outcome>  (741) 
too moved

>  <fragmenstein_mode>  (741) 
expansion

>  <fragmenstein_error>  (741) 


$$$$
C46681-P44
     RDKit          3D

 60 62  0  0  0  0  0  0  0  0999 V2000
   14.8708   -1.6721   21.0913 C   0  0  0  0  0  0  0  0  0  0  0  0
   14.2987   -2.2658   22.3749 C   0  0  0  0  0  0  0  0  0  0  0  0
   13.2919   -3.4382   22.2213 C   0  0  0  0  0  0  0  0  0  0  0  0
   13.9008   -4.6171   21.4253 C   0  0  0  0  0  0  0  0  0  0  0  0
   13.6729   -4.5504   19.9129 C   0  0  0  0  0  0  0  0  0  0  0  0
   12.6951   -3.8591   23.6359 C   0  0  0  0  0  0  0  0  0  0  0  0
   12.9032   -4.9484   24.0885 O   0  0  0  0  0  0  0  0  0  0  0  0
   11.9031   -2.7616   24.1460 N   0  0  0  0  0  0  0  0  0  0  0  0
   11.0410   -2.6679   25.3085 C   0  0  0  0  0  0  0  0  0  0  0  0
   10.5139   -3.9130   25.9703 C   0  0  0  0  0  0  0  0  0  0  0  0
    9.5228   -3.5001   27.1234 C   0  0  0  0  0  0  0  0  0  0  0  0
    9.2453   -2.0103   27.4816 N   0  0  0  0  0  0  0  0  0  0  0  0
    8.1733   -1.9188   28.4551 C   0  0  0  0  0  0  0  0  0  0  0  0
    8.2120   -1.9063   29.6625 O   0  0  0  0  0  0  0  0  0  0  0  0
    6.7173   -1.6912   27.8140 C   0  0  0  0  0  0  0  0  0  0  0  0
    6.7377   -0.5980   26.7189 C   0  0  0  0  0  0  0  0  0  0  0  0
    5.3538   -0.1039   26.2652 C   0  0  0  0  0  0  0  0  0  0  0  0
    4.3697    0.1141   27.4163 C   0  0  0  0  0  0  0  0  0  0  0  0
    4.3994   -0.9026   28.4711 N   0  0  0  0  0  0  0  0  0  0  0  0
    3.7828   -2.1752   28.1002 C   0  0  0  0  0  0  0  0  0  0  0  0
    4.5809   -3.0138   27.1022 C   0  0  0  0  0  0  0  0  0  0  0  0
    6.0991   -3.0275   27.3449 C   0  0  0  0  0  0  0  0  0  0  0  0
    5.7800   -1.1344   28.9356 C   0  0  0  0  0  0  0  0  0  0  0  0
   10.7437   -2.0048   27.6656 C   0  0  0  0  0  0  0  0  0  0  0  0
   11.5938   -1.7907   26.4016 C   0  0  0  0  0  0  0  0  0  0  0  0
   14.0866   -1.3289   20.4185 H   0  0  0  0  0  0  0  0  0  0  0  0
   15.4978   -0.8074   21.3342 H   0  0  0  0  0  0  0  0  0  0  0  0
   15.5062   -2.3908   20.5669 H   0  0  0  0  0  0  0  0  0  0  0  0
   13.8395   -1.4450   22.9365 H   0  0  0  0  0  0  0  0  0  0  0  0
   15.1345   -2.6063   23.0002 H   0  0  0  0  0  0  0  0  0  0  0  0
   12.4272   -3.1076   21.6438 H   0  0  0  0  0  0  0  0  0  0  0  0
   13.4786   -5.5686   21.7699 H   0  0  0  0  0  0  0  0  0  0  0  0
   14.9778   -4.6772   21.6242 H   0  0  0  0  0  0  0  0  0  0  0  0
   12.6487   -4.8357   19.6753 H   0  0  0  0  0  0  0  0  0  0  0  0
   14.3312   -5.2660   19.4102 H   0  0  0  0  0  0  0  0  0  0  0  0
   13.8629   -3.5631   19.4906 H   0  0  0  0  0  0  0  0  0  0  0  0
   11.8847   -2.0125   23.4517 H   0  0  0  0  0  0  0  0  0  0  0  0
   10.1702   -2.1377   24.9257 H   0  0  0  0  0  0  0  0  0  0  0  0
   10.0096   -4.5752   25.2632 H   0  0  0  0  0  0  0  0  0  0  0  0
   11.3344   -4.5013   26.4008 H   0  0  0  0  0  0  0  0  0  0  0  0
    8.5516   -3.8741   26.7872 H   0  0  0  0  0  0  0  0  0  0  0  0
    9.6844   -4.0991   28.0368 H   0  0  0  0  0  0  0  0  0  0  0  0
    7.2967    0.2682   27.0998 H   0  0  0  0  0  0  0  0  0  0  0  0
    7.3056   -0.9516   25.8534 H   0  0  0  0  0  0  0  0  0  0  0  0
    5.4785    0.8401   25.7205 H   0  0  0  0  0  0  0  0  0  0  0  0
    4.9348   -0.7983   25.5325 H   0  0  0  0  0  0  0  0  0  0  0  0
    4.6039    1.0797   27.8837 H   0  0  0  0  0  0  0  0  0  0  0  0
    3.3530    0.2271   27.0200 H   0  0  0  0  0  0  0  0  0  0  0  0
    3.6521   -2.7660   29.0166 H   0  0  0  0  0  0  0  0  0  0  0  0
    2.7668   -2.0118   27.7212 H   0  0  0  0  0  0  0  0  0  0  0  0
    4.2113   -4.0469   27.1280 H   0  0  0  0  0  0  0  0  0  0  0  0
    4.3813   -2.6746   26.0826 H   0  0  0  0  0  0  0  0  0  0  0  0
    6.3126   -3.7958   28.1002 H   0  0  0  0  0  0  0  0  0  0  0  0
    6.5751   -3.3680   26.4235 H   0  0  0  0  0  0  0  0  0  0  0  0
    5.7493   -1.8235   29.7911 H   0  0  0  0  0  0  0  0  0  0  0  0
    6.1860   -0.1962   29.3392 H   0  0  0  0  0  0  0  0  0  0  0  0
   11.1489   -2.7542   28.3690 H   0  0  0  0  0  0  0  0  0  0  0  0
   10.8948   -1.0893   28.2598 H   0  0  0  0  0  0  0  0  0  0  0  0
   12.6424   -2.0228   26.6220 H   0  0  0  0  0  0  0  0  0  0  0  0
   11.5597   -0.7395   26.0892 H   0  0  0  0  0  0  0  0  0  0  0  0
  1  2  1  0
  2  3  1  0
  3  4  1  0
  4  5  1  0
  3  6  1  0
  6  7  2  0
  6  8  1  0
  8  9  1  0
  9 10  1  0
 10 11  1  0
 11 12  1  0
 12 13  1  0
 13 14  2  0
 13 15  1  0
 15 16  1  0
 16 17  1  0
 17 18  1  0
 18 19  1  0
 19 20  1  0
 20 21  1  0
 21 22  1  0
 19 23  1  0
 12 24  1  0
 24 25  1  0
 25  9  1  0
 22 15  1  0
 23 15  1  0
  1 26  1  0
  1 27  1  0
  1 28  1  0
  2 29  1  0
  2 30  1  0
  3 31  1  0
  4 32  1  0
  4 33  1  0
  5 34  1  0
  5 35  1  0
  5 36  1  0
  8 37  1  0
  9 38  1  0
 10 39  1  0
 10 40  1  0
 11 41  1  0
 11 42  1  0
 16 43  1  0
 16 44  1  0
 17 45  1  0
 17 46  1  0
 18 47  1  0
 18 48  1  0
 20 49  1  0
 20 50  1  0
 21 51  1  0
 21 52  1  0
 22 53  1  0
 22 54  1  0
 23 55  1  0
 23 56  1  0
 24 57  1  0
 24 58  1  0
 25 59  1  0
 25 60  1  0
M  END
>  <Energy>  (742) 
90.88249029103541

>  <compound_id>  (742) 
46681

>  <target_id>  (742) 
1

>  <reference_id>  (742) 
44

>  <inspiration_ids>  (742) 
[27, 44]

>  <energy_score>  (742) 
27.054936711328253

>  <distance_score>  (742) 
7.78191593835516

>  <path>  (742) 
/opt/xchem-fragalysis-2/maxwin/BulkDock/SCRATCH/511023/C46681-P44/C46681-P44.minimised.mol

>  <scratch_subdir>  (742) 
/opt/xchem-fragalysis-2/maxwin/BulkDock/SCRATCH/511023/C46681-P44

>  <fragmenstein_runtime>  (742) 
24.934711456298828

>  <fragmenstein_outcome>  (742) 
too moved

>  <fragmenstein_mode>  (742) 
expansion

>  <fragmenstein_error>  (742) 


$$$$
C46682-P27
     RDKit          3D

 57 59  0  0  0  0  0  0  0  0999 V2000
   15.0783   -0.7645   19.8695 C   0  0  0  0  0  0  0  0  0  0  0  0
   14.7304   -0.9214   21.3450 C   0  0  0  0  0  0  0  0  0  0  0  0
   14.6925   -2.3778   21.8759 C   0  0  0  0  0  0  0  0  0  0  0  0
   13.7844   -3.3491   21.0876 C   0  0  0  0  0  0  0  0  0  0  0  0
   14.4883   -4.1164   19.9701 C   0  0  0  0  0  0  0  0  0  0  0  0
   14.4890   -2.4236   23.4480 C   0  0  0  0  0  0  0  0  0  0  0  0
   15.4019   -2.8846   24.0775 O   0  0  0  0  0  0  0  0  0  0  0  0
   13.2554   -1.8195   23.8864 N   0  0  0  0  0  0  0  0  0  0  0  0
   12.7705   -1.4904   25.2295 C   0  0  0  0  0  0  0  0  0  0  0  0
   11.5658   -2.2567   25.7473 C   0  0  0  0  0  0  0  0  0  0  0  0
   11.0127   -1.6610   27.0916 C   0  0  0  0  0  0  0  0  0  0  0  0
   10.4215   -0.2219   27.1777 N   0  0  0  0  0  0  0  0  0  0  0  0
    9.7138   -0.0454   28.4312 C   0  0  0  0  0  0  0  0  0  0  0  0
   10.1064    0.3572   29.5017 O   0  0  0  0  0  0  0  0  0  0  0  0
    8.1416   -0.3130   28.3891 C   0  0  0  0  0  0  0  0  0  0  0  0
    7.5492   -1.3648   27.4411 C   0  0  0  0  0  0  0  0  0  0  0  0
    5.9998   -1.3161   27.3739 C   0  0  0  0  0  0  0  0  0  0  0  0
    5.3650    0.0595   27.5847 C   0  0  0  0  0  0  0  0  0  0  0  0
    6.0895    0.9170   28.5313 N   0  0  0  0  0  0  0  0  0  0  0  0
    6.2223    0.2605   29.8432 C   0  0  0  0  0  0  0  0  0  0  0  0
    7.5207   -0.5589   29.7998 C   0  0  0  0  0  0  0  0  0  0  0  0
    7.4902    1.0515   28.0773 C   0  0  0  0  0  0  0  0  0  0  0  0
   11.8320    0.1452   26.7857 C   0  0  0  0  0  0  0  0  0  0  0  0
   12.3353   -0.0492   25.3471 C   0  0  0  0  0  0  0  0  0  0  0  0
   14.3090   -1.1919   19.2231 H   0  0  0  0  0  0  0  0  0  0  0  0
   15.1676    0.2974   19.6179 H   0  0  0  0  0  0  0  0  0  0  0  0
   16.0349   -1.2449   19.6419 H   0  0  0  0  0  0  0  0  0  0  0  0
   13.7899   -0.4004   21.5348 H   0  0  0  0  0  0  0  0  0  0  0  0
   15.4801   -0.3713   21.9296 H   0  0  0  0  0  0  0  0  0  0  0  0
   15.7197   -2.7541   21.7455 H   0  0  0  0  0  0  0  0  0  0  0  0
   13.3411   -4.0790   21.7755 H   0  0  0  0  0  0  0  0  0  0  0  0
   12.9650   -2.8244   20.6128 H   0  0  0  0  0  0  0  0  0  0  0  0
   13.7782   -4.7826   19.4690 H   0  0  0  0  0  0  0  0  0  0  0  0
   14.9109   -3.4500   19.2152 H   0  0  0  0  0  0  0  0  0  0  0  0
   15.2975   -4.7324   20.3752 H   0  0  0  0  0  0  0  0  0  0  0  0
   12.6749   -1.6155   23.0679 H   0  0  0  0  0  0  0  0  0  0  0  0
   13.6152   -1.6727   25.9063 H   0  0  0  0  0  0  0  0  0  0  0  0
   11.8160   -3.3145   25.8845 H   0  0  0  0  0  0  0  0  0  0  0  0
   10.7645   -2.2030   25.0243 H   0  0  0  0  0  0  0  0  0  0  0  0
   10.1573   -2.3043   27.3405 H   0  0  0  0  0  0  0  0  0  0  0  0
   11.6969   -1.8567   27.9361 H   0  0  0  0  0  0  0  0  0  0  0  0
    7.9841   -1.2678   26.4470 H   0  0  0  0  0  0  0  0  0  0  0  0
    7.8481   -2.3697   27.7667 H   0  0  0  0  0  0  0  0  0  0  0  0
    5.6060   -2.0036   28.1337 H   0  0  0  0  0  0  0  0  0  0  0  0
    5.6603   -1.6946   26.4073 H   0  0  0  0  0  0  0  0  0  0  0  0
    5.2959    0.5845   26.6279 H   0  0  0  0  0  0  0  0  0  0  0  0
    4.3257   -0.0635   27.9146 H   0  0  0  0  0  0  0  0  0  0  0  0
    5.3527   -0.3501   30.1119 H   0  0  0  0  0  0  0  0  0  0  0  0
    6.3100    1.0345   30.6155 H   0  0  0  0  0  0  0  0  0  0  0  0
    7.3226   -1.6233   29.9726 H   0  0  0  0  0  0  0  0  0  0  0  0
    8.1715   -0.2325   30.6177 H   0  0  0  0  0  0  0  0  0  0  0  0
    7.5719    1.3260   27.0222 H   0  0  0  0  0  0  0  0  0  0  0  0
    7.9686    1.8656   28.6392 H   0  0  0  0  0  0  0  0  0  0  0  0
   11.7802    1.2409   26.8934 H   0  0  0  0  0  0  0  0  0  0  0  0
   12.5812   -0.0921   27.5617 H   0  0  0  0  0  0  0  0  0  0  0  0
   13.1858    0.6149   25.1527 H   0  0  0  0  0  0  0  0  0  0  0  0
   11.5509    0.2039   24.6230 H   0  0  0  0  0  0  0  0  0  0  0  0
  1  2  1  0
  2  3  1  0
  3  4  1  0
  4  5  1  0
  3  6  1  0
  6  7  2  0
  6  8  1  0
  8  9  1  0
  9 10  1  0
 10 11  1  0
 11 12  1  0
 12 13  1  0
 13 14  2  0
 13 15  1  0
 15 16  1  0
 16 17  1  0
 17 18  1  0
 18 19  1  0
 19 20  1  0
 20 21  1  0
 19 22  1  0
 12 23  1  0
 23 24  1  0
 24  9  1  0
 21 15  1  0
 22 15  1  0
  1 25  1  0
  1 26  1  0
  1 27  1  0
  2 28  1  0
  2 29  1  0
  3 30  1  0
  4 31  1  0
  4 32  1  0
  5 33  1  0
  5 34  1  0
  5 35  1  0
  8 36  1  0
  9 37  1  0
 10 38  1  0
 10 39  1  0
 11 40  1  0
 11 41  1  0
 16 42  1  0
 16 43  1  0
 17 44  1  0
 17 45  1  0
 18 46  1  0
 18 47  1  0
 20 48  1  0
 20 49  1  0
 21 50  1  0
 21 51  1  0
 22 52  1  0
 22 53  1  0
 23 54  1  0
 23 55  1  0
 24 56  1  0
 24 57  1  0
M  END
>  <Energy>  (743) 
88.518554736603562

>  <compound_id>  (743) 
46682

>  <target_id>  (743) 
1

>  <reference_id>  (743) 
27

>  <inspiration_ids>  (743) 
[27, 44]

>  <energy_score>  (743) 
17.28124097022186

>  <distance_score>  (743) 
8.050140232271756

>  <path>  (743) 
/opt/xchem-fragalysis-2/maxwin/BulkDock/SCRATCH/511023/C46682-P27/C46682-P27.minimised.mol

>  <scratch_subdir>  (743) 
/opt/xchem-fragalysis-2/maxwin/BulkDock/SCRATCH/511023/C46682-P27

>  <fragmenstein_runtime>  (743) 
16.836369037628174

>  <fragmenstein_outcome>  (743) 
too moved

>  <fragmenstein_mode>  (743) 
expansion

>  <fragmenstein_error>  (743) 


$$$$
C46682-P44
     RDKit          3D

 57 59  0  0  0  0  0  0  0  0999 V2000
   15.3679   -1.0406   20.8726 C   0  0  0  0  0  0  0  0  0  0  0  0
   14.4011   -1.5435   21.9424 C   0  0  0  0  0  0  0  0  0  0  0  0
   14.1098   -3.0770   22.0011 C   0  0  0  0  0  0  0  0  0  0  0  0
   14.1690   -3.6639   20.5523 C   0  0  0  0  0  0  0  0  0  0  0  0
   13.9809   -5.1629   20.4140 C   0  0  0  0  0  0  0  0  0  0  0  0
   12.7406   -3.3899   22.7426 C   0  0  0  0  0  0  0  0  0  0  0  0
   11.9458   -4.0726   22.1640 O   0  0  0  0  0  0  0  0  0  0  0  0
   12.6410   -2.6941   24.0065 N   0  0  0  0  0  0  0  0  0  0  0  0
   11.5108   -2.5262   24.9228 C   0  0  0  0  0  0  0  0  0  0  0  0
   11.4375   -1.1425   25.5279 C   0  0  0  0  0  0  0  0  0  0  0  0
   10.3104   -1.0054   26.6059 C   0  0  0  0  0  0  0  0  0  0  0  0
    9.4226   -2.1495   27.1300 N   0  0  0  0  0  0  0  0  0  0  0  0
    8.4996   -1.6478   28.1344 C   0  0  0  0  0  0  0  0  0  0  0  0
    8.6171   -1.5684   29.3350 O   0  0  0  0  0  0  0  0  0  0  0  0
    7.0565   -1.2326   27.5899 C   0  0  0  0  0  0  0  0  0  0  0  0
    6.9811   -0.0300   26.6262 C   0  0  0  0  0  0  0  0  0  0  0  0
    5.5377    0.3319   26.2127 C   0  0  0  0  0  0  0  0  0  0  0  0
    4.5313    0.2125   27.3595 C   0  0  0  0  0  0  0  0  0  0  0  0
    4.7649   -0.9451   28.2380 N   0  0  0  0  0  0  0  0  0  0  0  0
    4.8021   -2.2111   27.4840 C   0  0  0  0  0  0  0  0  0  0  0  0
    6.2585   -2.4279   27.0345 C   0  0  0  0  0  0  0  0  0  0  0  0
    6.1357   -0.8642   28.7886 C   0  0  0  0  0  0  0  0  0  0  0  0
   10.7640   -2.8293   27.2788 C   0  0  0  0  0  0  0  0  0  0  0  0
   11.4064   -3.5156   26.0517 C   0  0  0  0  0  0  0  0  0  0  0  0
   16.3308   -1.5560   20.9419 H   0  0  0  0  0  0  0  0  0  0  0  0
   14.9636   -1.1702   19.8650 H   0  0  0  0  0  0  0  0  0  0  0  0
   15.5515    0.0300   21.0130 H   0  0  0  0  0  0  0  0  0  0  0  0
   13.4740   -0.9875   21.8118 H   0  0  0  0  0  0  0  0  0  0  0  0
   14.7979   -1.2319   22.9167 H   0  0  0  0  0  0  0  0  0  0  0  0
   14.8987   -3.5625   22.5905 H   0  0  0  0  0  0  0  0  0  0  0  0
   13.4441   -3.1724   19.9018 H   0  0  0  0  0  0  0  0  0  0  0  0
   15.1606   -3.4555   20.1339 H   0  0  0  0  0  0  0  0  0  0  0  0
   14.2681   -5.4765   19.4057 H   0  0  0  0  0  0  0  0  0  0  0  0
   14.6099   -5.7053   21.1265 H   0  0  0  0  0  0  0  0  0  0  0  0
   12.9436   -5.4696   20.5614 H   0  0  0  0  0  0  0  0  0  0  0  0
   13.5365   -2.2811   24.2268 H   0  0  0  0  0  0  0  0  0  0  0  0
   10.6264   -2.6718   24.3062 H   0  0  0  0  0  0  0  0  0  0  0  0
   11.3022   -0.3715   24.7615 H   0  0  0  0  0  0  0  0  0  0  0  0
   12.3972   -0.9002   26.0061 H   0  0  0  0  0  0  0  0  0  0  0  0
   10.6817   -0.4154   27.4630 H   0  0  0  0  0  0  0  0  0  0  0  0
    9.5938   -0.3118   26.1534 H   0  0  0  0  0  0  0  0  0  0  0  0
    7.4513    0.8424   27.0976 H   0  0  0  0  0  0  0  0  0  0  0  0
    7.5554   -0.2415   25.7229 H   0  0  0  0  0  0  0  0  0  0  0  0
    5.2236   -0.3326   25.3987 H   0  0  0  0  0  0  0  0  0  0  0  0
    5.5165    1.3471   25.8008 H   0  0  0  0  0  0  0  0  0  0  0  0
    4.5668    1.1256   27.9674 H   0  0  0  0  0  0  0  0  0  0  0  0
    3.5137    0.1686   26.9524 H   0  0  0  0  0  0  0  0  0  0  0  0
    4.1016   -2.2293   26.6423 H   0  0  0  0  0  0  0  0  0  0  0  0
    4.5065   -3.0294   28.1519 H   0  0  0  0  0  0  0  0  0  0  0  0
    6.3170   -2.4779   25.9452 H   0  0  0  0  0  0  0  0  0  0  0  0
    6.6345   -3.3781   27.4317 H   0  0  0  0  0  0  0  0  0  0  0  0
    6.2193   -1.5875   29.6111 H   0  0  0  0  0  0  0  0  0  0  0  0
    6.3600    0.1218   29.2148 H   0  0  0  0  0  0  0  0  0  0  0  0
   10.5055   -3.6683   27.9451 H   0  0  0  0  0  0  0  0  0  0  0  0
   11.4859   -2.2945   27.9237 H   0  0  0  0  0  0  0  0  0  0  0  0
   12.3913   -3.9037   26.3372 H   0  0  0  0  0  0  0  0  0  0  0  0
   10.8052   -4.3782   25.7391 H   0  0  0  0  0  0  0  0  0  0  0  0
  1  2  1  0
  2  3  1  0
  3  4  1  0
  4  5  1  0
  3  6  1  0
  6  7  2  0
  6  8  1  0
  8  9  1  0
  9 10  1  0
 10 11  1  0
 11 12  1  0
 12 13  1  0
 13 14  2  0
 13 15  1  0
 15 16  1  0
 16 17  1  0
 17 18  1  0
 18 19  1  0
 19 20  1  0
 20 21  1  0
 19 22  1  0
 12 23  1  0
 23 24  1  0
 24  9  1  0
 21 15  1  0
 22 15  1  0
  1 25  1  0
  1 26  1  0
  1 27  1  0
  2 28  1  0
  2 29  1  0
  3 30  1  0
  4 31  1  0
  4 32  1  0
  5 33  1  0
  5 34  1  0
  5 35  1  0
  8 36  1  0
  9 37  1  0
 10 38  1  0
 10 39  1  0
 11 40  1  0
 11 41  1  0
 16 42  1  0
 16 43  1  0
 17 44  1  0
 17 45  1  0
 18 46  1  0
 18 47  1  0
 20 48  1  0
 20 49  1  0
 21 50  1  0
 21 51  1  0
 22 52  1  0
 22 53  1  0
 23 54  1  0
 23 55  1  0
 24 56  1  0
 24 57  1  0
M  END
>  <Energy>  (744) 
92.012900895522279

>  <compound_id>  (744) 
46682

>  <target_id>  (744) 
1

>  <reference_id>  (744) 
44

>  <inspiration_ids>  (744) 
[27, 44]

>  <energy_score>  (744) 
20.77558712913867

>  <distance_score>  (744) 
7.647392506672729

>  <path>  (744) 
/opt/xchem-fragalysis-2/maxwin/BulkDock/SCRATCH/511023/C46682-P44/C46682-P44.minimised.mol

>  <scratch_subdir>  (744) 
/opt/xchem-fragalysis-2/maxwin/BulkDock/SCRATCH/511023/C46682-P44

>  <fragmenstein_runtime>  (744) 
15.262497663497925

>  <fragmenstein_outcome>  (744) 
too moved

>  <fragmenstein_mode>  (744) 
expansion

>  <fragmenstein_error>  (744) 


$$$$
C46661-P27
     RDKit          3D

 57 59  0  0  0  0  0  0  0  0999 V2000
   15.5750    1.1167   20.2529 C   0  0  0  0  0  0  0  0  0  0  0  0
   14.3645    0.2304   20.4995 C   0  0  0  0  0  0  0  0  0  0  0  0
   14.6675   -1.1551   21.1040 C   0  0  0  0  0  0  0  0  0  0  0  0
   15.7290   -1.9426   20.3161 C   0  0  0  0  0  0  0  0  0  0  0  0
   15.2853   -2.2678   18.8853 C   0  0  0  0  0  0  0  0  0  0  0  0
   14.9144   -1.0608   22.6543 C   0  0  0  0  0  0  0  0  0  0  0  0
   16.0260   -1.1327   23.0971 O   0  0  0  0  0  0  0  0  0  0  0  0
   13.6309   -0.9215   23.3282 N   0  0  0  0  0  0  0  0  0  0  0  0
   13.2972   -0.7272   24.7645 C   0  0  0  0  0  0  0  0  0  0  0  0
   14.4916   -0.8353   25.6918 C   0  0  0  0  0  0  0  0  0  0  0  0
   14.9220   -2.2562   25.9613 C   0  0  0  0  0  0  0  0  0  0  0  0
   13.9017   -2.9179   26.8619 C   0  0  0  0  0  0  0  0  0  0  0  0
   12.5482   -3.1032   26.1818 C   0  0  0  0  0  0  0  0  0  0  0  0
   11.3978   -2.1496   26.3711 N   0  0  0  0  0  0  0  0  0  0  0  0
   11.1903   -1.0958   27.3446 C   0  0  0  0  0  0  0  0  0  0  0  0
   11.9278   -0.6570   28.1919 O   0  0  0  0  0  0  0  0  0  0  0  0
    9.6589   -0.5871   27.2374 C   0  0  0  0  0  0  0  0  0  0  0  0
    9.1523    0.5554   28.1286 C   0  0  0  0  0  0  0  0  0  0  0  0
    7.6451    0.5692   27.8134 C   0  0  0  0  0  0  0  0  0  0  0  0
    7.3442   -0.9268   27.6801 C   0  0  0  0  0  0  0  0  0  0  0  0
    8.6773   -1.5767   27.8642 N   0  0  0  0  0  0  0  0  0  0  0  0
    8.9796   -1.4876   29.3180 C   0  0  0  0  0  0  0  0  0  0  0  0
    9.2718   -0.0072   29.5471 C   0  0  0  0  0  0  0  0  0  0  0  0
   11.9598   -1.5654   25.0648 C   0  0  0  0  0  0  0  0  0  0  0  0
   16.1622    1.2458   21.1673 H   0  0  0  0  0  0  0  0  0  0  0  0
   16.2266    0.7065   19.4761 H   0  0  0  0  0  0  0  0  0  0  0  0
   15.2508    2.1075   19.9180 H   0  0  0  0  0  0  0  0  0  0  0  0
   13.8527    0.1030   19.5408 H   0  0  0  0  0  0  0  0  0  0  0  0
   13.6776    0.7742   21.1579 H   0  0  0  0  0  0  0  0  0  0  0  0
   13.7727   -1.7722   20.9906 H   0  0  0  0  0  0  0  0  0  0  0  0
   16.6854   -1.4088   20.3007 H   0  0  0  0  0  0  0  0  0  0  0  0
   15.9239   -2.8883   20.8378 H   0  0  0  0  0  0  0  0  0  0  0  0
   15.1783   -1.3625   18.2813 H   0  0  0  0  0  0  0  0  0  0  0  0
   14.3317   -2.8052   18.8815 H   0  0  0  0  0  0  0  0  0  0  0  0
   16.0331   -2.9037   18.4007 H   0  0  0  0  0  0  0  0  0  0  0  0
   12.8833   -0.9769   22.6366 H   0  0  0  0  0  0  0  0  0  0  0  0
   12.9946    0.3290   24.8023 H   0  0  0  0  0  0  0  0  0  0  0  0
   15.3368   -0.2621   25.2952 H   0  0  0  0  0  0  0  0  0  0  0  0
   14.2445   -0.3475   26.6438 H   0  0  0  0  0  0  0  0  0  0  0  0
   15.8916   -2.2474   26.4730 H   0  0  0  0  0  0  0  0  0  0  0  0
   15.0536   -2.8270   25.0360 H   0  0  0  0  0  0  0  0  0  0  0  0
   13.8005   -2.3788   27.8096 H   0  0  0  0  0  0  0  0  0  0  0  0
   14.2941   -3.9104   27.1208 H   0  0  0  0  0  0  0  0  0  0  0  0
   12.6211   -3.6378   25.2175 H   0  0  0  0  0  0  0  0  0  0  0  0
   12.1315   -3.9286   26.7868 H   0  0  0  0  0  0  0  0  0  0  0  0
    9.4258   -0.4263   26.1790 H   0  0  0  0  0  0  0  0  0  0  0  0
    9.6454    1.5202   27.9951 H   0  0  0  0  0  0  0  0  0  0  0  0
    7.0529    1.0412   28.6041 H   0  0  0  0  0  0  0  0  0  0  0  0
    7.4619    1.1078   26.8860 H   0  0  0  0  0  0  0  0  0  0  0  0
    6.6096   -1.2686   28.4188 H   0  0  0  0  0  0  0  0  0  0  0  0
    6.9369   -1.1889   26.7029 H   0  0  0  0  0  0  0  0  0  0  0  0
    9.8564   -2.1003   29.5578 H   0  0  0  0  0  0  0  0  0  0  0  0
    8.1592   -1.8567   29.9440 H   0  0  0  0  0  0  0  0  0  0  0  0
   10.2796    0.1331   29.9504 H   0  0  0  0  0  0  0  0  0  0  0  0
    8.5638    0.4525   30.2446 H   0  0  0  0  0  0  0  0  0  0  0  0
   11.7650   -2.2725   24.2411 H   0  0  0  0  0  0  0  0  0  0  0  0
   11.1978   -0.8015   24.8415 H   0  0  0  0  0  0  0  0  0  0  0  0
  1  2  1  0
  2  3  1  0
  3  4  1  0
  4  5  1  0
  3  6  1  0
  6  7  2  0
  6  8  1  0
  8  9  1  0
  9 10  1  0
 10 11  1  0
 11 12  1  0
 12 13  1  0
 13 14  1  0
 14 15  1  0
 15 16  2  0
 15 17  1  0
 17 18  1  0
 18 19  1  0
 19 20  1  0
 20 21  1  0
 21 22  1  0
 22 23  1  0
 14 24  1  0
 24  9  1  0
 21 17  1  0
 23 18  1  0
  1 25  1  0
  1 26  1  0
  1 27  1  0
  2 28  1  0
  2 29  1  0
  3 30  1  0
  4 31  1  0
  4 32  1  0
  5 33  1  0
  5 34  1  0
  5 35  1  0
  8 36  1  0
  9 37  1  0
 10 38  1  0
 10 39  1  0
 11 40  1  0
 11 41  1  0
 12 42  1  0
 12 43  1  0
 13 44  1  0
 13 45  1  0
 17 46  1  0
 18 47  1  0
 19 48  1  0
 19 49  1  0
 20 50  1  0
 20 51  1  0
 22 52  1  0
 22 53  1  0
 23 54  1  0
 23 55  1  0
 24 56  1  0
 24 57  1  0
M  END
>  <Energy>  (745) 
163.46871974321215

>  <compound_id>  (745) 
46661

>  <target_id>  (745) 
1

>  <reference_id>  (745) 
27

>  <inspiration_ids>  (745) 
[27, 44]

>  <energy_score>  (745) 
39.240260222359495

>  <distance_score>  (745) 
8.408476007299656

>  <path>  (745) 
/opt/xchem-fragalysis-2/maxwin/BulkDock/SCRATCH/511023/C46661-P27/C46661-P27.minimised.mol

>  <scratch_subdir>  (745) 
/opt/xchem-fragalysis-2/maxwin/BulkDock/SCRATCH/511023/C46661-P27

>  <fragmenstein_runtime>  (745) 
33.21255803108215

>  <fragmenstein_outcome>  (745) 
too moved

>  <fragmenstein_mode>  (745) 
expansion

>  <fragmenstein_error>  (745) 


$$$$
C46661-P44
     RDKit          3D

 57 59  0  0  0  0  0  0  0  0999 V2000
   12.4940    3.5191   21.3869 C   0  0  0  0  0  0  0  0  0  0  0  0
   12.0805    2.5381   22.4751 C   0  0  0  0  0  0  0  0  0  0  0  0
   13.2477    1.8649   23.2167 C   0  0  0  0  0  0  0  0  0  0  0  0
   14.0041    0.7382   22.4511 C   0  0  0  0  0  0  0  0  0  0  0  0
   14.8192    1.1441   21.2308 C   0  0  0  0  0  0  0  0  0  0  0  0
   12.7797    1.3309   24.6191 C   0  0  0  0  0  0  0  0  0  0  0  0
   13.3182    1.7552   25.6009 O   0  0  0  0  0  0  0  0  0  0  0  0
   11.7924    0.3022   24.4635 N   0  0  0  0  0  0  0  0  0  0  0  0
   11.2059   -0.6159   25.4313 C   0  0  0  0  0  0  0  0  0  0  0  0
   12.3663   -1.5048   25.9101 C   0  0  0  0  0  0  0  0  0  0  0  0
   11.9067   -2.9056   26.2651 C   0  0  0  0  0  0  0  0  0  0  0  0
   10.5138   -2.9174   26.8753 C   0  0  0  0  0  0  0  0  0  0  0  0
   10.2067   -1.6588   27.7117 C   0  0  0  0  0  0  0  0  0  0  0  0
    9.0849   -0.8055   27.2022 N   0  0  0  0  0  0  0  0  0  0  0  0
    8.1879    0.0987   27.9064 C   0  0  0  0  0  0  0  0  0  0  0  0
    8.1833    0.4540   29.0584 O   0  0  0  0  0  0  0  0  0  0  0  0
    7.0008    0.5614   26.9598 C   0  0  0  0  0  0  0  0  0  0  0  0
    5.8759   -0.4478   26.7096 C   0  0  0  0  0  0  0  0  0  0  0  0
    4.8855    0.3687   25.8626 C   0  0  0  0  0  0  0  0  0  0  0  0
    5.0515    1.7674   26.4537 C   0  0  0  0  0  0  0  0  0  0  0  0
    6.0334    1.5803   27.5626 N   0  0  0  0  0  0  0  0  0  0  0  0
    5.3119    0.8213   28.6309 C   0  0  0  0  0  0  0  0  0  0  0  0
    5.2360   -0.6046   28.0936 C   0  0  0  0  0  0  0  0  0  0  0  0
   10.2952    0.0071   26.5675 C   0  0  0  0  0  0  0  0  0  0  0  0
   13.0090    3.0402   20.5593 H   0  0  0  0  0  0  0  0  0  0  0  0
   11.6070    4.0159   20.9799 H   0  0  0  0  0  0  0  0  0  0  0  0
   13.1512    4.2943   21.7939 H   0  0  0  0  0  0  0  0  0  0  0  0
   11.3784    1.8028   22.0777 H   0  0  0  0  0  0  0  0  0  0  0  0
   11.4962    3.1090   23.2102 H   0  0  0  0  0  0  0  0  0  0  0  0
   13.9850    2.6482   23.4459 H   0  0  0  0  0  0  0  0  0  0  0  0
   13.3351   -0.0701   22.1613 H   0  0  0  0  0  0  0  0  0  0  0  0
   14.7042    0.2800   23.1638 H   0  0  0  0  0  0  0  0  0  0  0  0
   14.2001    1.3668   20.3654 H   0  0  0  0  0  0  0  0  0  0  0  0
   15.4834    0.3228   20.9408 H   0  0  0  0  0  0  0  0  0  0  0  0
   15.4427    2.0162   21.4503 H   0  0  0  0  0  0  0  0  0  0  0  0
   11.6253    0.1496   23.4702 H   0  0  0  0  0  0  0  0  0  0  0  0
   10.5524   -1.2401   24.8242 H   0  0  0  0  0  0  0  0  0  0  0  0
   13.1436   -1.6003   25.1398 H   0  0  0  0  0  0  0  0  0  0  0  0
   12.8612   -1.0340   26.7691 H   0  0  0  0  0  0  0  0  0  0  0  0
   12.6269   -3.3497   26.9626 H   0  0  0  0  0  0  0  0  0  0  0  0
   11.9080   -3.5429   25.3724 H   0  0  0  0  0  0  0  0  0  0  0  0
    9.7602   -3.0381   26.0881 H   0  0  0  0  0  0  0  0  0  0  0  0
   10.4286   -3.8109   27.5070 H   0  0  0  0  0  0  0  0  0  0  0  0
    9.7022   -2.0862   28.5962 H   0  0  0  0  0  0  0  0  0  0  0  0
   11.0525   -1.1866   28.2394 H   0  0  0  0  0  0  0  0  0  0  0  0
    7.4440    0.9693   26.0478 H   0  0  0  0  0  0  0  0  0  0  0  0
    6.1728   -1.3968   26.2588 H   0  0  0  0  0  0  0  0  0  0  0  0
    3.8580    0.0003   25.9478 H   0  0  0  0  0  0  0  0  0  0  0  0
    5.1662    0.3581   24.8081 H   0  0  0  0  0  0  0  0  0  0  0  0
    4.1043    2.1996   26.7949 H   0  0  0  0  0  0  0  0  0  0  0  0
    5.4693    2.4546   25.7088 H   0  0  0  0  0  0  0  0  0  0  0  0
    5.8586    0.8608   29.5781 H   0  0  0  0  0  0  0  0  0  0  0  0
    4.3195    1.2409   28.8346 H   0  0  0  0  0  0  0  0  0  0  0  0
    4.2082   -0.9782   28.0444 H   0  0  0  0  0  0  0  0  0  0  0  0
    5.8227   -1.2867   28.7188 H   0  0  0  0  0  0  0  0  0  0  0  0
    9.7660    0.8277   26.0580 H   0  0  0  0  0  0  0  0  0  0  0  0
   10.8667    0.5581   27.3340 H   0  0  0  0  0  0  0  0  0  0  0  0
  1  2  1  0
  2  3  1  0
  3  4  1  0
  4  5  1  0
  3  6  1  0
  6  7  2  0
  6  8  1  0
  8  9  1  0
  9 10  1  0
 10 11  1  0
 11 12  1  0
 12 13  1  0
 13 14  1  0
 14 15  1  0
 15 16  2  0
 15 17  1  0
 17 18  1  0
 18 19  1  0
 19 20  1  0
 20 21  1  0
 21 22  1  0
 22 23  1  0
 14 24  1  0
 24  9  1  0
 21 17  1  0
 23 18  1  0
  1 25  1  0
  1 26  1  0
  1 27  1  0
  2 28  1  0
  2 29  1  0
  3 30  1  0
  4 31  1  0
  4 32  1  0
  5 33  1  0
  5 34  1  0
  5 35  1  0
  8 36  1  0
  9 37  1  0
 10 38  1  0
 10 39  1  0
 11 40  1  0
 11 41  1  0
 12 42  1  0
 12 43  1  0
 13 44  1  0
 13 45  1  0
 17 46  1  0
 18 47  1  0
 19 48  1  0
 19 49  1  0
 20 50  1  0
 20 51  1  0
 22 52  1  0
 22 53  1  0
 23 54  1  0
 23 55  1  0
 24 56  1  0
 24 57  1  0
M  END
>  <Energy>  (746) 
156.61434487301898

>  <compound_id>  (746) 
46661

>  <target_id>  (746) 
1

>  <reference_id>  (746) 
44

>  <inspiration_ids>  (746) 
[27, 44]

>  <energy_score>  (746) 
32.385885352166156

>  <distance_score>  (746) 
8.302079343373142

>  <path>  (746) 
/opt/xchem-fragalysis-2/maxwin/BulkDock/SCRATCH/511023/C46661-P44/C46661-P44.minimised.mol

>  <scratch_subdir>  (746) 
/opt/xchem-fragalysis-2/maxwin/BulkDock/SCRATCH/511023/C46661-P44

>  <fragmenstein_runtime>  (746) 
17.569410800933838

>  <fragmenstein_outcome>  (746) 
too moved

>  <fragmenstein_mode>  (746) 
expansion

>  <fragmenstein_error>  (746) 


$$$$
C46667-P27
     RDKit          3D

 57 59  0  0  0  0  0  0  0  0999 V2000
   14.3457    3.0073   17.2526 C   0  0  0  0  0  0  0  0  0  0  0  0
   13.7484    2.4227   18.5268 C   0  0  0  0  0  0  0  0  0  0  0  0
   14.7672    1.6939   19.4238 C   0  0  0  0  0  0  0  0  0  0  0  0
   15.4856    0.5475   18.6491 C   0  0  0  0  0  0  0  0  0  0  0  0
   14.5910   -0.4933   17.9767 C   0  0  0  0  0  0  0  0  0  0  0  0
   14.2048    1.2026   20.8113 C   0  0  0  0  0  0  0  0  0  0  0  0
   14.3553    0.0515   21.1034 O   0  0  0  0  0  0  0  0  0  0  0  0
   13.5815    2.2864   21.5394 N   0  0  0  0  0  0  0  0  0  0  0  0
   13.0254    2.3397   22.8999 C   0  0  0  0  0  0  0  0  0  0  0  0
   11.9657    1.2587   23.1499 C   0  0  0  0  0  0  0  0  0  0  0  0
   10.7107    1.7021   23.9267 C   0  0  0  0  0  0  0  0  0  0  0  0
   10.9896    2.6657   25.0903 C   0  0  0  0  0  0  0  0  0  0  0  0
    9.7471    3.1120   25.7764 N   0  0  0  0  0  0  0  0  0  0  0  0
    8.8190    2.3916   26.6205 C   0  0  0  0  0  0  0  0  0  0  0  0
    8.7732    1.2309   26.9181 O   0  0  0  0  0  0  0  0  0  0  0  0
    7.6922    3.3038   27.2279 C   0  0  0  0  0  0  0  0  0  0  0  0
    6.9534    4.3305   26.3433 C   0  0  0  0  0  0  0  0  0  0  0  0
    5.5752    4.4188   27.0125 C   0  0  0  0  0  0  0  0  0  0  0  0
    5.7107    3.6144   28.2518 N   0  0  0  0  0  0  0  0  0  0  0  0
    6.6779    4.2898   29.1583 C   0  0  0  0  0  0  0  0  0  0  0  0
    8.0596    4.0374   28.5243 C   0  0  0  0  0  0  0  0  0  0  0  0
    6.5157    2.4609   27.7774 C   0  0  0  0  0  0  0  0  0  0  0  0
   11.8751    3.8366   24.6246 C   0  0  0  0  0  0  0  0  0  0  0  0
   12.4446    3.7178   23.1993 C   0  0  0  0  0  0  0  0  0  0  0  0
   15.1948    3.6589   17.4813 H   0  0  0  0  0  0  0  0  0  0  0  0
   14.6803    2.2282   16.5621 H   0  0  0  0  0  0  0  0  0  0  0  0
   13.5930    3.6057   16.7286 H   0  0  0  0  0  0  0  0  0  0  0  0
   13.2852    3.2489   19.0739 H   0  0  0  0  0  0  0  0  0  0  0  0
   12.9365    1.7533   18.2424 H   0  0  0  0  0  0  0  0  0  0  0  0
   15.5523    2.4159   19.6935 H   0  0  0  0  0  0  0  0  0  0  0  0
   16.1294    0.9919   17.8801 H   0  0  0  0  0  0  0  0  0  0  0  0
   16.1693    0.0252   19.3305 H   0  0  0  0  0  0  0  0  0  0  0  0
   15.2102   -1.1990   17.4127 H   0  0  0  0  0  0  0  0  0  0  0  0
   14.0438   -1.0701   18.7224 H   0  0  0  0  0  0  0  0  0  0  0  0
   13.8814   -0.0479   17.2759 H   0  0  0  0  0  0  0  0  0  0  0  0
   13.7083    3.1471   21.0228 H   0  0  0  0  0  0  0  0  0  0  0  0
   13.8729    2.1545   23.5714 H   0  0  0  0  0  0  0  0  0  0  0  0
   12.4362    0.4186   23.6751 H   0  0  0  0  0  0  0  0  0  0  0  0
   11.6163    0.8787   22.1931 H   0  0  0  0  0  0  0  0  0  0  0  0
   10.0145    2.1861   23.2286 H   0  0  0  0  0  0  0  0  0  0  0  0
   10.1900    0.8125   24.2999 H   0  0  0  0  0  0  0  0  0  0  0  0
   11.5401    2.0981   25.8519 H   0  0  0  0  0  0  0  0  0  0  0  0
    9.4329    4.0699   25.6829 H   0  0  0  0  0  0  0  0  0  0  0  0
    6.8777    4.0565   25.2910 H   0  0  0  0  0  0  0  0  0  0  0  0
    7.4577    5.3046   26.3657 H   0  0  0  0  0  0  0  0  0  0  0  0
    5.2764    5.4525   27.2179 H   0  0  0  0  0  0  0  0  0  0  0  0
    4.8056    3.9777   26.3681 H   0  0  0  0  0  0  0  0  0  0  0  0
    6.4613    5.3578   29.2732 H   0  0  0  0  0  0  0  0  0  0  0  0
    6.6310    3.8377   30.1559 H   0  0  0  0  0  0  0  0  0  0  0  0
    8.6045    4.9694   28.3404 H   0  0  0  0  0  0  0  0  0  0  0  0
    8.6777    3.4090   29.1767 H   0  0  0  0  0  0  0  0  0  0  0  0
    5.9705    1.8665   27.0397 H   0  0  0  0  0  0  0  0  0  0  0  0
    6.7945    1.7882   28.5995 H   0  0  0  0  0  0  0  0  0  0  0  0
   11.3273    4.7848   24.6921 H   0  0  0  0  0  0  0  0  0  0  0  0
   12.7126    3.9319   25.3282 H   0  0  0  0  0  0  0  0  0  0  0  0
   11.6526    3.9511   22.4748 H   0  0  0  0  0  0  0  0  0  0  0  0
   13.2135    4.4881   23.0592 H   0  0  0  0  0  0  0  0  0  0  0  0
  1  2  1  0
  2  3  1  0
  3  4  1  0
  4  5  1  0
  3  6  1  0
  6  7  2  0
  6  8  1  0
  8  9  1  0
  9 10  1  0
 10 11  1  0
 11 12  1  0
 12 13  1  0
 13 14  1  0
 14 15  2  0
 14 16  1  0
 16 17  1  0
 17 18  1  0
 18 19  1  0
 19 20  1  0
 20 21  1  0
 19 22  1  0
 12 23  1  0
 23 24  1  0
 24  9  1  0
 21 16  1  0
 22 16  1  0
  1 25  1  0
  1 26  1  0
  1 27  1  0
  2 28  1  0
  2 29  1  0
  3 30  1  0
  4 31  1  0
  4 32  1  0
  5 33  1  0
  5 34  1  0
  5 35  1  0
  8 36  1  0
  9 37  1  0
 10 38  1  0
 10 39  1  0
 11 40  1  0
 11 41  1  0
 12 42  1  0
 13 43  1  0
 17 44  1  0
 17 45  1  0
 18 46  1  0
 18 47  1  0
 20 48  1  0
 20 49  1  0
 21 50  1  0
 21 51  1  0
 22 52  1  0
 22 53  1  0
 23 54  1  0
 23 55  1  0
 24 56  1  0
 24 57  1  0
M  END
>  <Energy>  (747) 
19.86925352110913

>  <compound_id>  (747) 
46667

>  <target_id>  (747) 
1

>  <reference_id>  (747) 
27

>  <inspiration_ids>  (747) 
[27, 44]

>  <energy_score>  (747) 
-14.316477743915812

>  <distance_score>  (747) 
8.033041208863892

>  <path>  (747) 
/opt/xchem-fragalysis-2/maxwin/BulkDock/SCRATCH/511023/C46667-P27/C46667-P27.minimised.mol

>  <scratch_subdir>  (747) 
/opt/xchem-fragalysis-2/maxwin/BulkDock/SCRATCH/511023/C46667-P27

>  <fragmenstein_runtime>  (747) 
18.686957597732544

>  <fragmenstein_outcome>  (747) 
too moved

>  <fragmenstein_mode>  (747) 
expansion

>  <fragmenstein_error>  (747) 


$$$$
C46667-P44
     RDKit          3D

 57 59  0  0  0  0  0  0  0  0999 V2000
   15.9699   -1.4663   19.2920 C   0  0  0  0  0  0  0  0  0  0  0  0
   15.0213   -1.9655   20.3771 C   0  0  0  0  0  0  0  0  0  0  0  0
   14.8767   -3.5083   20.5198 C   0  0  0  0  0  0  0  0  0  0  0  0
   14.7804   -4.2135   19.1345 C   0  0  0  0  0  0  0  0  0  0  0  0
   13.6531   -3.7645   18.2048 C   0  0  0  0  0  0  0  0  0  0  0  0
   13.6883   -3.9312   21.4725 C   0  0  0  0  0  0  0  0  0  0  0  0
   12.8769   -4.7111   21.0674 O   0  0  0  0  0  0  0  0  0  0  0  0
   13.7433   -3.1897   22.7061 N   0  0  0  0  0  0  0  0  0  0  0  0
   12.7913   -3.0818   23.7923 C   0  0  0  0  0  0  0  0  0  0  0  0
   13.0494   -1.8339   24.6457 C   0  0  0  0  0  0  0  0  0  0  0  0
   11.9325   -1.5643   25.6792 C   0  0  0  0  0  0  0  0  0  0  0  0
   10.7646   -2.5506   25.5463 C   0  0  0  0  0  0  0  0  0  0  0  0
    9.5393   -2.2136   26.2990 N   0  0  0  0  0  0  0  0  0  0  0  0
    8.7645   -0.9878   26.3540 C   0  0  0  0  0  0  0  0  0  0  0  0
    8.9692    0.0896   25.8633 O   0  0  0  0  0  0  0  0  0  0  0  0
    7.3896   -1.1177   27.1062 C   0  0  0  0  0  0  0  0  0  0  0  0
    6.4446    0.1021   26.8513 C   0  0  0  0  0  0  0  0  0  0  0  0
    5.0618   -0.4364   27.2195 C   0  0  0  0  0  0  0  0  0  0  0  0
    5.3349   -1.8271   27.6637 N   0  0  0  0  0  0  0  0  0  0  0  0
    6.0428   -1.7547   28.9697 C   0  0  0  0  0  0  0  0  0  0  0  0
    7.4666   -1.2991   28.6232 C   0  0  0  0  0  0  0  0  0  0  0  0
    6.4307   -2.2384   26.7299 C   0  0  0  0  0  0  0  0  0  0  0  0
   11.3037   -3.9995   25.6484 C   0  0  0  0  0  0  0  0  0  0  0  0
   12.5301   -4.2779   24.7073 C   0  0  0  0  0  0  0  0  0  0  0  0
   16.9615   -1.9149   19.4091 H   0  0  0  0  0  0  0  0  0  0  0  0
   15.6073   -1.6838   18.2849 H   0  0  0  0  0  0  0  0  0  0  0  0
   16.0820   -0.3795   19.3683 H   0  0  0  0  0  0  0  0  0  0  0  0
   15.3905   -1.5531   21.3236 H   0  0  0  0  0  0  0  0  0  0  0  0
   14.0451   -1.5068   20.2260 H   0  0  0  0  0  0  0  0  0  0  0  0
   15.7871   -3.8903   21.0028 H   0  0  0  0  0  0  0  0  0  0  0  0
   15.7335   -4.0809   18.6078 H   0  0  0  0  0  0  0  0  0  0  0  0
   14.6840   -5.2949   19.2937 H   0  0  0  0  0  0  0  0  0  0  0  0
   13.8066   -4.1855   17.2059 H   0  0  0  0  0  0  0  0  0  0  0  0
   12.6919   -4.1313   18.5613 H   0  0  0  0  0  0  0  0  0  0  0  0
   13.5919   -2.6797   18.1023 H   0  0  0  0  0  0  0  0  0  0  0  0
   14.6181   -2.6863   22.7491 H   0  0  0  0  0  0  0  0  0  0  0  0
   11.8605   -2.9833   23.2350 H   0  0  0  0  0  0  0  0  0  0  0  0
   13.1674   -0.9512   24.0053 H   0  0  0  0  0  0  0  0  0  0  0  0
   14.0069   -1.9365   25.1731 H   0  0  0  0  0  0  0  0  0  0  0  0
   12.3476   -1.6187   26.6933 H   0  0  0  0  0  0  0  0  0  0  0  0
   11.5795   -0.5341   25.5541 H   0  0  0  0  0  0  0  0  0  0  0  0
   10.4100   -2.4357   24.5272 H   0  0  0  0  0  0  0  0  0  0  0  0
    9.0225   -2.9519   26.7611 H   0  0  0  0  0  0  0  0  0  0  0  0
    6.4526    0.4093   25.8012 H   0  0  0  0  0  0  0  0  0  0  0  0
    6.7243    0.9684   27.4611 H   0  0  0  0  0  0  0  0  0  0  0  0
    4.5650    0.1628   27.9902 H   0  0  0  0  0  0  0  0  0  0  0  0
    4.4058   -0.4496   26.3409 H   0  0  0  0  0  0  0  0  0  0  0  0
    6.0670   -2.7507   29.4273 H   0  0  0  0  0  0  0  0  0  0  0  0
    5.5476   -1.0841   29.6808 H   0  0  0  0  0  0  0  0  0  0  0  0
    8.1971   -2.0677   28.9001 H   0  0  0  0  0  0  0  0  0  0  0  0
    7.7385   -0.3724   29.1397 H   0  0  0  0  0  0  0  0  0  0  0  0
    6.0944   -2.2184   25.6883 H   0  0  0  0  0  0  0  0  0  0  0  0
    6.7992   -3.2450   26.9589 H   0  0  0  0  0  0  0  0  0  0  0  0
   11.5887   -4.2186   26.6846 H   0  0  0  0  0  0  0  0  0  0  0  0
   10.4985   -4.7017   25.4020 H   0  0  0  0  0  0  0  0  0  0  0  0
   13.4176   -4.4899   25.3157 H   0  0  0  0  0  0  0  0  0  0  0  0
   12.3383   -5.1818   24.1178 H   0  0  0  0  0  0  0  0  0  0  0  0
  1  2  1  0
  2  3  1  0
  3  4  1  0
  4  5  1  0
  3  6  1  0
  6  7  2  0
  6  8  1  0
  8  9  1  0
  9 10  1  0
 10 11  1  0
 11 12  1  0
 12 13  1  0
 13 14  1  0
 14 15  2  0
 14 16  1  0
 16 17  1  0
 17 18  1  0
 18 19  1  0
 19 20  1  0
 20 21  1  0
 19 22  1  0
 12 23  1  0
 23 24  1  0
 24  9  1  0
 21 16  1  0
 22 16  1  0
  1 25  1  0
  1 26  1  0
  1 27  1  0
  2 28  1  0
  2 29  1  0
  3 30  1  0
  4 31  1  0
  4 32  1  0
  5 33  1  0
  5 34  1  0
  5 35  1  0
  8 36  1  0
  9 37  1  0
 10 38  1  0
 10 39  1  0
 11 40  1  0
 11 41  1  0
 12 42  1  0
 13 43  1  0
 17 44  1  0
 17 45  1  0
 18 46  1  0
 18 47  1  0
 20 48  1  0
 20 49  1  0
 21 50  1  0
 21 51  1  0
 22 52  1  0
 22 53  1  0
 23 54  1  0
 23 55  1  0
 24 56  1  0
 24 57  1  0
M  END
>  <Energy>  (748) 
28.740179086629706

>  <compound_id>  (748) 
46667

>  <target_id>  (748) 
1

>  <reference_id>  (748) 
44

>  <inspiration_ids>  (748) 
[27, 44]

>  <energy_score>  (748) 
-5.44555217839644

>  <distance_score>  (748) 
7.261286372555391

>  <path>  (748) 
/opt/xchem-fragalysis-2/maxwin/BulkDock/SCRATCH/511023/C46667-P44/C46667-P44.minimised.mol

>  <scratch_subdir>  (748) 
/opt/xchem-fragalysis-2/maxwin/BulkDock/SCRATCH/511023/C46667-P44

>  <fragmenstein_runtime>  (748) 
18.359228134155273

>  <fragmenstein_outcome>  (748) 
too moved

>  <fragmenstein_mode>  (748) 
expansion

>  <fragmenstein_error>  (748) 


$$$$
C46668-P27
     RDKit          3D

 60 62  0  0  0  0  0  0  0  0999 V2000
   15.4203    1.9377   17.4097 C   0  0  0  0  0  0  0  0  0  0  0  0
   16.1305    1.4041   18.6514 C   0  0  0  0  0  0  0  0  0  0  0  0
   15.3197    0.5826   19.6818 C   0  0  0  0  0  0  0  0  0  0  0  0
   14.7951   -0.7771   19.1563 C   0  0  0  0  0  0  0  0  0  0  0  0
   14.0769   -0.8144   17.8120 C   0  0  0  0  0  0  0  0  0  0  0  0
   14.2666    1.4585   20.4395 C   0  0  0  0  0  0  0  0  0  0  0  0
   13.9095    2.4829   19.9351 O   0  0  0  0  0  0  0  0  0  0  0  0
   13.8573    0.8221   21.6696 N   0  0  0  0  0  0  0  0  0  0  0  0
   12.8166    1.1760   22.6297 C   0  0  0  0  0  0  0  0  0  0  0  0
   12.7105    2.6714   22.9264 C   0  0  0  0  0  0  0  0  0  0  0  0
   11.7165    2.9901   24.0674 C   0  0  0  0  0  0  0  0  0  0  0  0
   10.7983    1.8144   24.4378 C   0  0  0  0  0  0  0  0  0  0  0  0
    9.7745    2.1543   25.4415 N   0  0  0  0  0  0  0  0  0  0  0  0
    8.4829    2.8180   25.3021 C   0  0  0  0  0  0  0  0  0  0  0  0
    7.9641    3.3259   24.3440 O   0  0  0  0  0  0  0  0  0  0  0  0
    7.6578    2.8909   26.7114 C   0  0  0  0  0  0  0  0  0  0  0  0
    7.9482    1.7915   27.7356 C   0  0  0  0  0  0  0  0  0  0  0  0
    6.6289    1.5502   28.4527 C   0  0  0  0  0  0  0  0  0  0  0  0
    5.6335    1.6645   27.3261 C   0  0  0  0  0  0  0  0  0  0  0  0
    6.1546    2.7540   26.4827 N   0  0  0  0  0  0  0  0  0  0  0  0
    5.5050    4.0282   26.8231 C   0  0  0  0  0  0  0  0  0  0  0  0
    6.6050    5.0585   26.7367 C   0  0  0  0  0  0  0  0  0  0  0  0
    7.8206    4.3121   27.2706 C   0  0  0  0  0  0  0  0  0  0  0  0
   11.6637    0.5981   24.8341 C   0  0  0  0  0  0  0  0  0  0  0  0
   12.9124    0.3956   23.9448 C   0  0  0  0  0  0  0  0  0  0  0  0
   14.3848    2.2299   17.5927 H   0  0  0  0  0  0  0  0  0  0  0  0
   15.4389    1.2128   16.5932 H   0  0  0  0  0  0  0  0  0  0  0  0
   15.9526    2.8210   17.0386 H   0  0  0  0  0  0  0  0  0  0  0  0
   16.9952    0.8118   18.3262 H   0  0  0  0  0  0  0  0  0  0  0  0
   16.5470    2.2714   19.1820 H   0  0  0  0  0  0  0  0  0  0  0  0
   16.0517    0.3282   20.4654 H   0  0  0  0  0  0  0  0  0  0  0  0
   15.6534   -1.4581   19.0794 H   0  0  0  0  0  0  0  0  0  0  0  0
   14.1408   -1.2244   19.9111 H   0  0  0  0  0  0  0  0  0  0  0  0
   14.7875   -0.7432   16.9855 H   0  0  0  0  0  0  0  0  0  0  0  0
   13.5680   -1.7764   17.6876 H   0  0  0  0  0  0  0  0  0  0  0  0
   13.3337   -0.0188   17.7248 H   0  0  0  0  0  0  0  0  0  0  0  0
   14.3106   -0.0812   21.7414 H   0  0  0  0  0  0  0  0  0  0  0  0
   11.8846    0.9032   22.1325 H   0  0  0  0  0  0  0  0  0  0  0  0
   12.3854    3.1995   22.0216 H   0  0  0  0  0  0  0  0  0  0  0  0
   13.6941    3.0863   23.1802 H   0  0  0  0  0  0  0  0  0  0  0  0
   11.1161    3.8644   23.7867 H   0  0  0  0  0  0  0  0  0  0  0  0
   12.2832    3.2945   24.9574 H   0  0  0  0  0  0  0  0  0  0  0  0
   10.2225    1.5589   23.5402 H   0  0  0  0  0  0  0  0  0  0  0  0
    9.9217    1.9194   26.4133 H   0  0  0  0  0  0  0  0  0  0  0  0
    8.2470    0.8594   27.2400 H   0  0  0  0  0  0  0  0  0  0  0  0
    8.7402    2.0642   28.4409 H   0  0  0  0  0  0  0  0  0  0  0  0
    6.4569    2.3199   29.2140 H   0  0  0  0  0  0  0  0  0  0  0  0
    6.6001    0.5710   28.9393 H   0  0  0  0  0  0  0  0  0  0  0  0
    4.6074    1.8214   27.6762 H   0  0  0  0  0  0  0  0  0  0  0  0
    5.6299    0.7336   26.7494 H   0  0  0  0  0  0  0  0  0  0  0  0
    5.1032    4.0319   27.8446 H   0  0  0  0  0  0  0  0  0  0  0  0
    4.6835    4.2494   26.1351 H   0  0  0  0  0  0  0  0  0  0  0  0
    6.3853    5.9549   27.3244 H   0  0  0  0  0  0  0  0  0  0  0  0
    6.7699    5.3654   25.6973 H   0  0  0  0  0  0  0  0  0  0  0  0
    8.7488    4.7974   26.9516 H   0  0  0  0  0  0  0  0  0  0  0  0
    7.7963    4.3187   28.3672 H   0  0  0  0  0  0  0  0  0  0  0  0
   11.0415   -0.3030   24.8051 H   0  0  0  0  0  0  0  0  0  0  0  0
   11.9910    0.6942   25.8774 H   0  0  0  0  0  0  0  0  0  0  0  0
   13.8012    0.7314   24.4958 H   0  0  0  0  0  0  0  0  0  0  0  0
   13.0661   -0.6751   23.7716 H   0  0  0  0  0  0  0  0  0  0  0  0
  1  2  1  0
  2  3  1  0
  3  4  1  0
  4  5  1  0
  3  6  1  0
  6  7  2  0
  6  8  1  0
  8  9  1  0
  9 10  1  0
 10 11  1  0
 11 12  1  0
 12 13  1  0
 13 14  1  0
 14 15  2  0
 14 16  1  0
 16 17  1  0
 17 18  1  0
 18 19  1  0
 19 20  1  0
 20 21  1  0
 21 22  1  0
 22 23  1  0
 12 24  1  0
 24 25  1  0
 25  9  1  0
 20 16  1  0
 23 16  1  0
  1 26  1  0
  1 27  1  0
  1 28  1  0
  2 29  1  0
  2 30  1  0
  3 31  1  0
  4 32  1  0
  4 33  1  0
  5 34  1  0
  5 35  1  0
  5 36  1  0
  8 37  1  0
  9 38  1  0
 10 39  1  0
 10 40  1  0
 11 41  1  0
 11 42  1  0
 12 43  1  0
 13 44  1  0
 17 45  1  0
 17 46  1  0
 18 47  1  0
 18 48  1  0
 19 49  1  0
 19 50  1  0
 21 51  1  0
 21 52  1  0
 22 53  1  0
 22 54  1  0
 23 55  1  0
 23 56  1  0
 24 57  1  0
 24 58  1  0
 25 59  1  0
 25 60  1  0
M  END
>  <Energy>  (749) 
65.573755291261875

>  <compound_id>  (749) 
46668

>  <target_id>  (749) 
1

>  <reference_id>  (749) 
27

>  <inspiration_ids>  (749) 
[27, 44]

>  <energy_score>  (749) 
-27.001081481143046

>  <distance_score>  (749) 
7.631366606374315

>  <path>  (749) 
/opt/xchem-fragalysis-2/maxwin/BulkDock/SCRATCH/511023/C46668-P27/C46668-P27.minimised.mol

>  <scratch_subdir>  (749) 
/opt/xchem-fragalysis-2/maxwin/BulkDock/SCRATCH/511023/C46668-P27

>  <fragmenstein_runtime>  (749) 
53.37451791763306

>  <fragmenstein_outcome>  (749) 
too moved

>  <fragmenstein_mode>  (749) 
expansion

>  <fragmenstein_error>  (749) 


$$$$
C46668-P44
     RDKit          3D

 60 62  0  0  0  0  0  0  0  0999 V2000
   14.8060   -1.3423   20.5151 C   0  0  0  0  0  0  0  0  0  0  0  0
   15.6531   -2.5670   20.8028 C   0  0  0  0  0  0  0  0  0  0  0  0
   14.9424   -3.9396   20.8152 C   0  0  0  0  0  0  0  0  0  0  0  0
   14.7809   -4.5274   19.3765 C   0  0  0  0  0  0  0  0  0  0  0  0
   13.9658   -3.7320   18.3621 C   0  0  0  0  0  0  0  0  0  0  0  0
   13.6260   -4.0791   21.6542 C   0  0  0  0  0  0  0  0  0  0  0  0
   12.7115   -4.6663   21.1544 O   0  0  0  0  0  0  0  0  0  0  0  0
   13.7246   -3.3988   22.9162 N   0  0  0  0  0  0  0  0  0  0  0  0
   12.7266   -3.1296   23.9284 C   0  0  0  0  0  0  0  0  0  0  0  0
   12.9569   -1.8167   24.6796 C   0  0  0  0  0  0  0  0  0  0  0  0
   11.7299   -1.4136   25.5369 C   0  0  0  0  0  0  0  0  0  0  0  0
   10.6491   -2.5067   25.5771 C   0  0  0  0  0  0  0  0  0  0  0  0
    9.3870   -2.1705   26.2494 N   0  0  0  0  0  0  0  0  0  0  0  0
    9.1292   -1.5368   27.5193 C   0  0  0  0  0  0  0  0  0  0  0  0
    9.8816   -1.1927   28.3890 O   0  0  0  0  0  0  0  0  0  0  0  0
    7.5364   -1.3765   27.7627 C   0  0  0  0  0  0  0  0  0  0  0  0
    7.2015   -0.3172   28.8481 C   0  0  0  0  0  0  0  0  0  0  0  0
    6.1633    0.6148   28.2412 C   0  0  0  0  0  0  0  0  0  0  0  0
    6.4702    0.5170   26.7663 C   0  0  0  0  0  0  0  0  0  0  0  0
    6.8058   -0.8987   26.5258 N   0  0  0  0  0  0  0  0  0  0  0  0
    5.5760   -1.7130   26.3782 C   0  0  0  0  0  0  0  0  0  0  0  0
    5.4532   -2.5779   27.6156 C   0  0  0  0  0  0  0  0  0  0  0  0
    6.8941   -2.7345   28.0697 C   0  0  0  0  0  0  0  0  0  0  0  0
   11.2885   -3.8677   25.9160 C   0  0  0  0  0  0  0  0  0  0  0  0
   12.4375   -4.2520   24.9307 C   0  0  0  0  0  0  0  0  0  0  0  0
   13.9975   -1.2278   21.2403 H   0  0  0  0  0  0  0  0  0  0  0  0
   15.4241   -0.4399   20.5676 H   0  0  0  0  0  0  0  0  0  0  0  0
   14.3862   -1.3903   19.5172 H   0  0  0  0  0  0  0  0  0  0  0  0
   16.4765   -2.5999   20.0777 H   0  0  0  0  0  0  0  0  0  0  0  0
   16.1381   -2.4119   21.7747 H   0  0  0  0  0  0  0  0  0  0  0  0
   15.6365   -4.6310   21.3184 H   0  0  0  0  0  0  0  0  0  0  0  0
   15.7810   -4.6897   18.9539 H   0  0  0  0  0  0  0  0  0  0  0  0
   14.3334   -5.5249   19.4621 H   0  0  0  0  0  0  0  0  0  0  0  0
   13.0172   -3.3961   18.7795 H   0  0  0  0  0  0  0  0  0  0  0  0
   14.5267   -2.8683   17.9963 H   0  0  0  0  0  0  0  0  0  0  0  0
   13.7440   -4.3545   17.4895 H   0  0  0  0  0  0  0  0  0  0  0  0
   14.6763   -3.0856   23.0480 H   0  0  0  0  0  0  0  0  0  0  0  0
   11.8238   -3.0552   23.3197 H   0  0  0  0  0  0  0  0  0  0  0  0
   13.8337   -1.9174   25.3326 H   0  0  0  0  0  0  0  0  0  0  0  0
   13.2021   -1.0032   23.9867 H   0  0  0  0  0  0  0  0  0  0  0  0
   12.0638   -1.1726   26.5532 H   0  0  0  0  0  0  0  0  0  0  0  0
   11.2960   -0.4893   25.1355 H   0  0  0  0  0  0  0  0  0  0  0  0
   10.3076   -2.6089   24.5538 H   0  0  0  0  0  0  0  0  0  0  0  0
    8.4941   -2.3935   25.8010 H   0  0  0  0  0  0  0  0  0  0  0  0
    8.0850    0.2794   29.1034 H   0  0  0  0  0  0  0  0  0  0  0  0
    6.8296   -0.7580   29.7791 H   0  0  0  0  0  0  0  0  0  0  0  0
    5.1492    0.2649   28.4618 H   0  0  0  0  0  0  0  0  0  0  0  0
    6.2584    1.6365   28.6207 H   0  0  0  0  0  0  0  0  0  0  0  0
    5.6524    0.8840   26.1371 H   0  0  0  0  0  0  0  0  0  0  0  0
    7.3518    1.1259   26.5300 H   0  0  0  0  0  0  0  0  0  0  0  0
    5.7052   -2.3582   25.5029 H   0  0  0  0  0  0  0  0  0  0  0  0
    4.6656   -1.1294   26.2008 H   0  0  0  0  0  0  0  0  0  0  0  0
    4.8619   -2.0754   28.3887 H   0  0  0  0  0  0  0  0  0  0  0  0
    4.9836   -3.5432   27.4039 H   0  0  0  0  0  0  0  0  0  0  0  0
    7.3705   -3.5425   27.5009 H   0  0  0  0  0  0  0  0  0  0  0  0
    6.9566   -3.0047   29.1289 H   0  0  0  0  0  0  0  0  0  0  0  0
   10.5234   -4.6535   25.8955 H   0  0  0  0  0  0  0  0  0  0  0  0
   11.6780   -3.8476   26.9412 H   0  0  0  0  0  0  0  0  0  0  0  0
   12.1629   -5.1685   24.3945 H   0  0  0  0  0  0  0  0  0  0  0  0
   13.3412   -4.4954   25.5027 H   0  0  0  0  0  0  0  0  0  0  0  0
  1  2  1  0
  2  3  1  0
  3  4  1  0
  4  5  1  0
  3  6  1  0
  6  7  2  0
  6  8  1  0
  8  9  1  0
  9 10  1  0
 10 11  1  0
 11 12  1  0
 12 13  1  0
 13 14  1  0
 14 15  2  0
 14 16  1  0
 16 17  1  0
 17 18  1  0
 18 19  1  0
 19 20  1  0
 20 21  1  0
 21 22  1  0
 22 23  1  0
 12 24  1  0
 24 25  1  0
 25  9  1  0
 20 16  1  0
 23 16  1  0
  1 26  1  0
  1 27  1  0
  1 28  1  0
  2 29  1  0
  2 30  1  0
  3 31  1  0
  4 32  1  0
  4 33  1  0
  5 34  1  0
  5 35  1  0
  5 36  1  0
  8 37  1  0
  9 38  1  0
 10 39  1  0
 10 40  1  0
 11 41  1  0
 11 42  1  0
 12 43  1  0
 13 44  1  0
 17 45  1  0
 17 46  1  0
 18 47  1  0
 18 48  1  0
 19 49  1  0
 19 50  1  0
 21 51  1  0
 21 52  1  0
 22 53  1  0
 22 54  1  0
 23 55  1  0
 23 56  1  0
 24 57  1  0
 24 58  1  0
 25 59  1  0
 25 60  1  0
M  END
>  <Energy>  (750) 
56.235695104171917

>  <compound_id>  (750) 
46668

>  <target_id>  (750) 
1

>  <reference_id>  (750) 
44

>  <inspiration_ids>  (750) 
[27, 44]

>  <energy_score>  (750) 
-36.339141668230184

>  <distance_score>  (750) 
7.308892948720394

>  <path>  (750) 
/opt/xchem-fragalysis-2/maxwin/BulkDock/SCRATCH/511023/C46668-P44/C46668-P44.minimised.mol

>  <scratch_subdir>  (750) 
/opt/xchem-fragalysis-2/maxwin/BulkDock/SCRATCH/511023/C46668-P44

>  <fragmenstein_runtime>  (750) 
55.85710906982422

>  <fragmenstein_outcome>  (750) 
too moved

>  <fragmenstein_mode>  (750) 
expansion

>  <fragmenstein_error>  (750) 


$$$$
C46669-P27
     RDKit          3D

 60 62  0  0  0  0  0  0  0  0999 V2000
   14.9391   -1.2525   19.8464 C   0  0  0  0  0  0  0  0  0  0  0  0
   15.1911   -2.6291   20.4640 C   0  0  0  0  0  0  0  0  0  0  0  0
   13.9339   -3.5213   20.4891 C   0  0  0  0  0  0  0  0  0  0  0  0
   13.8964   -4.5283   19.3246 C   0  0  0  0  0  0  0  0  0  0  0  0
   13.7693   -3.8837   17.9442 C   0  0  0  0  0  0  0  0  0  0  0  0
   13.6487   -4.1775   21.8947 C   0  0  0  0  0  0  0  0  0  0  0  0
   13.6718   -5.3645   22.0524 O   0  0  0  0  0  0  0  0  0  0  0  0
   13.2926   -3.1142   22.8017 N   0  0  0  0  0  0  0  0  0  0  0  0
   12.7609   -3.1490   24.1463 C   0  0  0  0  0  0  0  0  0  0  0  0
   13.3319   -2.0083   24.9773 C   0  0  0  0  0  0  0  0  0  0  0  0
   12.3060   -1.6192   26.0332 C   0  0  0  0  0  0  0  0  0  0  0  0
   11.7234   -2.7717   26.8873 C   0  0  0  0  0  0  0  0  0  0  0  0
   10.3524   -2.3658   27.3242 N   0  0  0  0  0  0  0  0  0  0  0  0
    9.3482   -3.0765   28.0955 C   0  0  0  0  0  0  0  0  0  0  0  0
    9.3345   -4.2032   28.5117 O   0  0  0  0  0  0  0  0  0  0  0  0
    8.0617   -2.1620   28.4310 C   0  0  0  0  0  0  0  0  0  0  0  0
    6.8853   -3.0327   28.9876 C   0  0  0  0  0  0  0  0  0  0  0  0
    5.5706   -2.2705   29.2377 C   0  0  0  0  0  0  0  0  0  0  0  0
    5.3325   -1.1322   28.2456 C   0  0  0  0  0  0  0  0  0  0  0  0
    6.5642   -0.3890   27.9143 N   0  0  0  0  0  0  0  0  0  0  0  0
    7.2883    0.0515   29.1217 C   0  0  0  0  0  0  0  0  0  0  0  0
    8.3370   -1.0325   29.4363 C   0  0  0  0  0  0  0  0  0  0  0  0
    7.5074   -1.3358   27.2740 C   0  0  0  0  0  0  0  0  0  0  0  0
   11.8243   -4.1927   26.2440 C   0  0  0  0  0  0  0  0  0  0  0  0
   12.7463   -4.3981   25.0025 C   0  0  0  0  0  0  0  0  0  0  0  0
   15.8691   -0.6752   19.8315 H   0  0  0  0  0  0  0  0  0  0  0  0
   14.2079   -0.6911   20.4361 H   0  0  0  0  0  0  0  0  0  0  0  0
   14.5731   -1.3252   18.8197 H   0  0  0  0  0  0  0  0  0  0  0  0
   15.5757   -2.4780   21.4796 H   0  0  0  0  0  0  0  0  0  0  0  0
   15.9974   -3.1246   19.9102 H   0  0  0  0  0  0  0  0  0  0  0  0
   13.0612   -2.8885   20.3220 H   0  0  0  0  0  0  0  0  0  0  0  0
   14.7848   -5.1700   19.3530 H   0  0  0  0  0  0  0  0  0  0  0  0
   13.0353   -5.1877   19.4707 H   0  0  0  0  0  0  0  0  0  0  0  0
   13.5675   -4.6439   17.1846 H   0  0  0  0  0  0  0  0  0  0  0  0
   12.9509   -3.1599   17.9129 H   0  0  0  0  0  0  0  0  0  0  0  0
   14.6957   -3.3751   17.6623 H   0  0  0  0  0  0  0  0  0  0  0  0
   13.3081   -2.2292   22.2988 H   0  0  0  0  0  0  0  0  0  0  0  0
   11.7152   -2.9031   23.9578 H   0  0  0  0  0  0  0  0  0  0  0  0
   14.2816   -2.2959   25.4442 H   0  0  0  0  0  0  0  0  0  0  0  0
   13.5431   -1.1287   24.3563 H   0  0  0  0  0  0  0  0  0  0  0  0
   11.4847   -1.1076   25.5110 H   0  0  0  0  0  0  0  0  0  0  0  0
   12.7362   -0.8609   26.6998 H   0  0  0  0  0  0  0  0  0  0  0  0
   12.3052   -2.8162   27.8172 H   0  0  0  0  0  0  0  0  0  0  0  0
    9.9952   -1.4564   27.0782 H   0  0  0  0  0  0  0  0  0  0  0  0
    6.6894   -3.8571   28.2986 H   0  0  0  0  0  0  0  0  0  0  0  0
    7.1918   -3.5161   29.9248 H   0  0  0  0  0  0  0  0  0  0  0  0
    4.7270   -2.9702   29.2179 H   0  0  0  0  0  0  0  0  0  0  0  0
    5.5975   -1.8614   30.2558 H   0  0  0  0  0  0  0  0  0  0  0  0
    4.5882   -0.4391   28.6559 H   0  0  0  0  0  0  0  0  0  0  0  0
    4.8909   -1.5284   27.3223 H   0  0  0  0  0  0  0  0  0  0  0  0
    7.8049    0.9930   28.8992 H   0  0  0  0  0  0  0  0  0  0  0  0
    6.6284    0.2558   29.9724 H   0  0  0  0  0  0  0  0  0  0  0  0
    8.2617   -1.3746   30.4744 H   0  0  0  0  0  0  0  0  0  0  0  0
    9.3454   -0.6230   29.3027 H   0  0  0  0  0  0  0  0  0  0  0  0
    7.0492   -1.9288   26.4832 H   0  0  0  0  0  0  0  0  0  0  0  0
    8.2886   -0.7397   26.7952 H   0  0  0  0  0  0  0  0  0  0  0  0
   12.1513   -4.8970   27.0211 H   0  0  0  0  0  0  0  0  0  0  0  0
   10.8218   -4.5420   25.9909 H   0  0  0  0  0  0  0  0  0  0  0  0
   13.7624   -4.6440   25.3341 H   0  0  0  0  0  0  0  0  0  0  0  0
   12.3857   -5.2634   24.4355 H   0  0  0  0  0  0  0  0  0  0  0  0
  1  2  1  0
  2  3  1  0
  3  4  1  0
  4  5  1  0
  3  6  1  0
  6  7  2  0
  6  8  1  0
  8  9  1  0
  9 10  1  0
 10 11  1  0
 11 12  1  0
 12 13  1  0
 13 14  1  0
 14 15  2  0
 14 16  1  0
 16 17  1  0
 17 18  1  0
 18 19  1  0
 19 20  1  0
 20 21  1  0
 21 22  1  0
 20 23  1  0
 12 24  1  0
 24 25  1  0
 25  9  1  0
 22 16  1  0
 23 16  1  0
  1 26  1  0
  1 27  1  0
  1 28  1  0
  2 29  1  0
  2 30  1  0
  3 31  1  0
  4 32  1  0
  4 33  1  0
  5 34  1  0
  5 35  1  0
  5 36  1  0
  8 37  1  0
  9 38  1  0
 10 39  1  0
 10 40  1  0
 11 41  1  0
 11 42  1  0
 12 43  1  0
 13 44  1  0
 17 45  1  0
 17 46  1  0
 18 47  1  0
 18 48  1  0
 19 49  1  0
 19 50  1  0
 21 51  1  0
 21 52  1  0
 22 53  1  0
 22 54  1  0
 23 55  1  0
 23 56  1  0
 24 57  1  0
 24 58  1  0
 25 59  1  0
 25 60  1  0
M  END
>  <Energy>  (751) 
33.636330066545085

>  <compound_id>  (751) 
46669

>  <target_id>  (751) 
1

>  <reference_id>  (751) 
27

>  <inspiration_ids>  (751) 
[27, 44]

>  <energy_score>  (751) 
-21.93637971701122

>  <distance_score>  (751) 
7.754643714293485

>  <path>  (751) 
/opt/xchem-fragalysis-2/maxwin/BulkDock/SCRATCH/511023/C46669-P27/C46669-P27.minimised.mol

>  <scratch_subdir>  (751) 
/opt/xchem-fragalysis-2/maxwin/BulkDock/SCRATCH/511023/C46669-P27

>  <fragmenstein_runtime>  (751) 
26.201603651046753

>  <fragmenstein_outcome>  (751) 
too moved

>  <fragmenstein_mode>  (751) 
expansion

>  <fragmenstein_error>  (751) 


$$$$
C46669-P44
     RDKit          3D

 60 62  0  0  0  0  0  0  0  0999 V2000
   13.8817   -3.7259   20.1745 C   0  0  0  0  0  0  0  0  0  0  0  0
   14.8896   -3.0438   21.0878 C   0  0  0  0  0  0  0  0  0  0  0  0
   14.6935   -1.5216   21.2023 C   0  0  0  0  0  0  0  0  0  0  0  0
   15.5806   -0.7371   20.2018 C   0  0  0  0  0  0  0  0  0  0  0  0
   15.6474   -1.2764   18.7718 C   0  0  0  0  0  0  0  0  0  0  0  0
   14.9240   -1.0904   22.6880 C   0  0  0  0  0  0  0  0  0  0  0  0
   15.9860   -0.6356   23.0046 O   0  0  0  0  0  0  0  0  0  0  0  0
   13.7623   -1.4236   23.4880 N   0  0  0  0  0  0  0  0  0  0  0  0
   13.4886   -1.2219   24.9058 C   0  0  0  0  0  0  0  0  0  0  0  0
   12.5950   -2.3319   25.4774 C   0  0  0  0  0  0  0  0  0  0  0  0
   11.0749   -2.0915   25.4274 C   0  0  0  0  0  0  0  0  0  0  0  0
   10.6312   -0.6201   25.5643 C   0  0  0  0  0  0  0  0  0  0  0  0
    9.2787   -0.4273   26.1380 N   0  0  0  0  0  0  0  0  0  0  0  0
    8.8098   -0.4849   27.5053 C   0  0  0  0  0  0  0  0  0  0  0  0
    9.4123   -0.6259   28.5322 O   0  0  0  0  0  0  0  0  0  0  0  0
    7.2286   -0.2491   27.5861 C   0  0  0  0  0  0  0  0  0  0  0  0
    6.7856    1.1316   27.0214 C   0  0  0  0  0  0  0  0  0  0  0  0
    5.2668    1.3693   27.1066 C   0  0  0  0  0  0  0  0  0  0  0  0
    4.4591    0.1000   26.8136 C   0  0  0  0  0  0  0  0  0  0  0  0
    5.0287   -1.1197   27.4226 N   0  0  0  0  0  0  0  0  0  0  0  0
    5.2462   -0.9427   28.8717 C   0  0  0  0  0  0  0  0  0  0  0  0
    6.6754   -0.4000   29.0289 C   0  0  0  0  0  0  0  0  0  0  0  0
    6.4000   -1.3383   26.9022 C   0  0  0  0  0  0  0  0  0  0  0  0
   11.7540    0.2272   26.1564 C   0  0  0  0  0  0  0  0  0  0  0  0
   12.9715    0.1929   25.2090 C   0  0  0  0  0  0  0  0  0  0  0  0
   12.8900   -3.7060   20.6339 H   0  0  0  0  0  0  0  0  0  0  0  0
   14.1532   -4.7789   20.0434 H   0  0  0  0  0  0  0  0  0  0  0  0
   13.8196   -3.2751   19.1839 H   0  0  0  0  0  0  0  0  0  0  0  0
   15.9066   -3.2728   20.7480 H   0  0  0  0  0  0  0  0  0  0  0  0
   14.8053   -3.5193   22.0733 H   0  0  0  0  0  0  0  0  0  0  0  0
   13.6658   -1.2536   20.9722 H   0  0  0  0  0  0  0  0  0  0  0  0
   15.2241    0.3006   20.1728 H   0  0  0  0  0  0  0  0  0  0  0  0
   16.6089   -0.6854   20.5811 H   0  0  0  0  0  0  0  0  0  0  0  0
   14.6655   -1.4714   18.3443 H   0  0  0  0  0  0  0  0  0  0  0  0
   16.2261   -2.2042   18.7279 H   0  0  0  0  0  0  0  0  0  0  0  0
   16.1551   -0.5500   18.1285 H   0  0  0  0  0  0  0  0  0  0  0  0
   13.0051   -1.7113   22.8713 H   0  0  0  0  0  0  0  0  0  0  0  0
   14.4716   -1.3164   25.3858 H   0  0  0  0  0  0  0  0  0  0  0  0
   12.8587   -2.4425   26.5389 H   0  0  0  0  0  0  0  0  0  0  0  0
   12.8276   -3.2992   25.0149 H   0  0  0  0  0  0  0  0  0  0  0  0
   10.6070   -2.6952   26.2156 H   0  0  0  0  0  0  0  0  0  0  0  0
   10.6955   -2.4995   24.4878 H   0  0  0  0  0  0  0  0  0  0  0  0
   10.5090   -0.2190   24.5544 H   0  0  0  0  0  0  0  0  0  0  0  0
    8.4823   -0.3829   25.5185 H   0  0  0  0  0  0  0  0  0  0  0  0
    7.3129    1.9392   27.5437 H   0  0  0  0  0  0  0  0  0  0  0  0
    7.0818    1.2110   25.9735 H   0  0  0  0  0  0  0  0  0  0  0  0
    5.0205    1.7363   28.1107 H   0  0  0  0  0  0  0  0  0  0  0  0
    4.9772    2.1667   26.4124 H   0  0  0  0  0  0  0  0  0  0  0  0
    4.3920   -0.0472   25.7278 H   0  0  0  0  0  0  0  0  0  0  0  0
    3.4268    0.2342   27.1588 H   0  0  0  0  0  0  0  0  0  0  0  0
    4.4969   -0.2996   29.3469 H   0  0  0  0  0  0  0  0  0  0  0  0
    5.1739   -1.9209   29.3624 H   0  0  0  0  0  0  0  0  0  0  0  0
    7.2635   -1.1188   29.6120 H   0  0  0  0  0  0  0  0  0  0  0  0
    6.6912    0.5503   29.5742 H   0  0  0  0  0  0  0  0  0  0  0  0
    6.7515   -2.3411   27.1788 H   0  0  0  0  0  0  0  0  0  0  0  0
    6.4279   -1.2894   25.8127 H   0  0  0  0  0  0  0  0  0  0  0  0
   11.4213    1.2656   26.2731 H   0  0  0  0  0  0  0  0  0  0  0  0
   12.0291   -0.1293   27.1560 H   0  0  0  0  0  0  0  0  0  0  0  0
   12.7064    0.7092   24.2768 H   0  0  0  0  0  0  0  0  0  0  0  0
   13.7800    0.7852   25.6554 H   0  0  0  0  0  0  0  0  0  0  0  0
  1  2  1  0
  2  3  1  0
  3  4  1  0
  4  5  1  0
  3  6  1  0
  6  7  2  0
  6  8  1  0
  8  9  1  0
  9 10  1  0
 10 11  1  0
 11 12  1  0
 12 13  1  0
 13 14  1  0
 14 15  2  0
 14 16  1  0
 16 17  1  0
 17 18  1  0
 18 19  1  0
 19 20  1  0
 20 21  1  0
 21 22  1  0
 20 23  1  0
 12 24  1  0
 24 25  1  0
 25  9  1  0
 22 16  1  0
 23 16  1  0
  1 26  1  0
  1 27  1  0
  1 28  1  0
  2 29  1  0
  2 30  1  0
  3 31  1  0
  4 32  1  0
  4 33  1  0
  5 34  1  0
  5 35  1  0
  5 36  1  0
  8 37  1  0
  9 38  1  0
 10 39  1  0
 10 40  1  0
 11 41  1  0
 11 42  1  0
 12 43  1  0
 13 44  1  0
 17 45  1  0
 17 46  1  0
 18 47  1  0
 18 48  1  0
 19 49  1  0
 19 50  1  0
 21 51  1  0
 21 52  1  0
 22 53  1  0
 22 54  1  0
 23 55  1  0
 23 56  1  0
 24 57  1  0
 24 58  1  0
 25 59  1  0
 25 60  1  0
M  END
>  <Energy>  (752) 
21.952386470613078

>  <compound_id>  (752) 
46669

>  <target_id>  (752) 
1

>  <reference_id>  (752) 
44

>  <inspiration_ids>  (752) 
[27, 44]

>  <energy_score>  (752) 
-33.62032331294239

>  <distance_score>  (752) 
7.3899850861508085

>  <path>  (752) 
/opt/xchem-fragalysis-2/maxwin/BulkDock/SCRATCH/511023/C46669-P44/C46669-P44.minimised.mol

>  <scratch_subdir>  (752) 
/opt/xchem-fragalysis-2/maxwin/BulkDock/SCRATCH/511023/C46669-P44

>  <fragmenstein_runtime>  (752) 
17.518321752548218

>  <fragmenstein_outcome>  (752) 
too moved

>  <fragmenstein_mode>  (752) 
expansion

>  <fragmenstein_error>  (752) 


$$$$
C46695-P27
     RDKit          3D

 54 56  0  0  0  0  0  0  0  0999 V2000
   14.9909   -0.2946   18.9745 C   0  0  0  0  0  0  0  0  0  0  0  0
   14.7511   -0.6685   20.4352 C   0  0  0  0  0  0  0  0  0  0  0  0
   14.9383   -2.1729   20.7542 C   0  0  0  0  0  0  0  0  0  0  0  0
   13.9139   -3.0780   20.0450 C   0  0  0  0  0  0  0  0  0  0  0  0
   14.4512   -4.4649   19.7339 C   0  0  0  0  0  0  0  0  0  0  0  0
   15.0435   -2.4027   22.3053 C   0  0  0  0  0  0  0  0  0  0  0  0
   16.0703   -2.8699   22.7128 O   0  0  0  0  0  0  0  0  0  0  0  0
   13.8899   -1.9148   23.0108 N   0  0  0  0  0  0  0  0  0  0  0  0
   13.6416   -1.7441   24.4389 C   0  0  0  0  0  0  0  0  0  0  0  0
   13.3646   -0.2750   24.7668 C   0  0  0  0  0  0  0  0  0  0  0  0
   11.8685   -0.1824   25.0864 C   0  0  0  0  0  0  0  0  0  0  0  0
   11.5549   -1.4821   25.6447 N   0  0  0  0  0  0  0  0  0  0  0  0
   10.4143   -1.7132   26.4146 C   0  0  0  0  0  0  0  0  0  0  0  0
   10.1532   -2.9912   26.8786 C   0  0  0  0  0  0  0  0  0  0  0  0
    9.0250   -3.2034   27.6447 C   0  0  0  0  0  0  0  0  0  0  0  0
    8.1856   -2.2384   28.0223 N   0  0  0  0  0  0  0  0  0  0  0  0
    8.4589   -1.0080   27.5613 C   0  0  0  0  0  0  0  0  0  0  0  0
    7.4778    0.0307   28.0944 C   0  0  0  0  0  0  0  0  0  0  0  0
    6.0050   -0.2928   27.7531 C   0  0  0  0  0  0  0  0  0  0  0  0
    5.2485    1.0338   27.7426 C   0  0  0  0  0  0  0  0  0  0  0  0
    6.2847    2.1143   28.0242 C   0  0  0  0  0  0  0  0  0  0  0  0
    7.6433    1.4910   27.7036 C   0  0  0  0  0  0  0  0  0  0  0  0
    9.5534   -0.7029   26.7767 N   0  0  0  0  0  0  0  0  0  0  0  0
   12.4221   -2.5076   25.0275 C   0  0  0  0  0  0  0  0  0  0  0  0
   14.9540    0.7936   18.8587 H   0  0  0  0  0  0  0  0  0  0  0  0
   15.9757   -0.6362   18.6408 H   0  0  0  0  0  0  0  0  0  0  0  0
   14.2336   -0.7197   18.3114 H   0  0  0  0  0  0  0  0  0  0  0  0
   15.4546   -0.0927   21.0507 H   0  0  0  0  0  0  0  0  0  0  0  0
   13.7548   -0.3261   20.7251 H   0  0  0  0  0  0  0  0  0  0  0  0
   15.9326   -2.4343   20.3613 H   0  0  0  0  0  0  0  0  0  0  0  0
   13.0162   -3.2009   20.6545 H   0  0  0  0  0  0  0  0  0  0  0  0
   13.6168   -2.6530   19.0846 H   0  0  0  0  0  0  0  0  0  0  0  0
   13.6816   -5.0595   19.2333 H   0  0  0  0  0  0  0  0  0  0  0  0
   15.3221   -4.4121   19.0729 H   0  0  0  0  0  0  0  0  0  0  0  0
   14.7437   -4.9882   20.6495 H   0  0  0  0  0  0  0  0  0  0  0  0
   13.1665   -1.6665   22.3345 H   0  0  0  0  0  0  0  0  0  0  0  0
   14.5576   -2.0690   24.9463 H   0  0  0  0  0  0  0  0  0  0  0  0
   13.6545    0.4228   23.9745 H   0  0  0  0  0  0  0  0  0  0  0  0
   13.9302   -0.0025   25.6673 H   0  0  0  0  0  0  0  0  0  0  0  0
   11.2885   -0.0012   24.1759 H   0  0  0  0  0  0  0  0  0  0  0  0
   11.6822    0.6374   25.7887 H   0  0  0  0  0  0  0  0  0  0  0  0
   10.7810   -3.8346   26.6315 H   0  0  0  0  0  0  0  0  0  0  0  0
    8.7697   -4.1996   27.9908 H   0  0  0  0  0  0  0  0  0  0  0  0
    7.5716   -0.0120   29.1903 H   0  0  0  0  0  0  0  0  0  0  0  0
    5.9101   -0.7855   26.7801 H   0  0  0  0  0  0  0  0  0  0  0  0
    5.5781   -0.9815   28.4917 H   0  0  0  0  0  0  0  0  0  0  0  0
    4.4504    1.0490   28.4922 H   0  0  0  0  0  0  0  0  0  0  0  0
    4.7773    1.1886   26.7686 H   0  0  0  0  0  0  0  0  0  0  0  0
    6.2500    2.3836   29.0870 H   0  0  0  0  0  0  0  0  0  0  0  0
    6.1020    3.0262   27.4482 H   0  0  0  0  0  0  0  0  0  0  0  0
    7.9056    1.5948   26.6513 H   0  0  0  0  0  0  0  0  0  0  0  0
    8.4461    1.9735   28.2719 H   0  0  0  0  0  0  0  0  0  0  0  0
   12.7789   -3.2159   25.7830 H   0  0  0  0  0  0  0  0  0  0  0  0
   11.8919   -3.0579   24.2467 H   0  0  0  0  0  0  0  0  0  0  0  0
  1  2  1  0
  2  3  1  0
  3  4  1  0
  4  5  1  0
  3  6  1  0
  6  7  2  0
  6  8  1  0
  8  9  1  0
  9 10  1  0
 10 11  1  0
 11 12  1  0
 12 13  1  0
 13 14  2  0
 14 15  1  0
 15 16  2  0
 16 17  1  0
 17 18  1  0
 18 19  1  0
 19 20  1  0
 20 21  1  0
 21 22  1  0
 17 23  2  0
 12 24  1  0
 24  9  1  0
 23 13  1  0
 22 18  1  0
  1 25  1  0
  1 26  1  0
  1 27  1  0
  2 28  1  0
  2 29  1  0
  3 30  1  0
  4 31  1  0
  4 32  1  0
  5 33  1  0
  5 34  1  0
  5 35  1  0
  8 36  1  0
  9 37  1  0
 10 38  1  0
 10 39  1  0
 11 40  1  0
 11 41  1  0
 14 42  1  0
 15 43  1  0
 18 44  1  0
 19 45  1  0
 19 46  1  0
 20 47  1  0
 20 48  1  0
 21 49  1  0
 21 50  1  0
 22 51  1  0
 22 52  1  0
 24 53  1  0
 24 54  1  0
M  END
>  <Energy>  (753) 
-9.3541733184715241

>  <compound_id>  (753) 
46695

>  <target_id>  (753) 
1

>  <reference_id>  (753) 
27

>  <inspiration_ids>  (753) 
[27, 44]

>  <energy_score>  (753) 
-18.637942273813678

>  <distance_score>  (753) 
7.549388212501256

>  <path>  (753) 
/opt/xchem-fragalysis-2/maxwin/BulkDock/SCRATCH/511023/C46695-P27/C46695-P27.minimised.mol

>  <scratch_subdir>  (753) 
/opt/xchem-fragalysis-2/maxwin/BulkDock/SCRATCH/511023/C46695-P27

>  <fragmenstein_runtime>  (753) 
24.28812861442566

>  <fragmenstein_outcome>  (753) 
too moved

>  <fragmenstein_mode>  (753) 
expansion

>  <fragmenstein_error>  (753) 


$$$$
C46695-P44
     RDKit          3D

 54 56  0  0  0  0  0  0  0  0999 V2000
   15.6254   -0.5850   20.0501 C   0  0  0  0  0  0  0  0  0  0  0  0
   14.6980   -1.3025   21.0263 C   0  0  0  0  0  0  0  0  0  0  0  0
   14.7949   -2.8437   21.0645 C   0  0  0  0  0  0  0  0  0  0  0  0
   15.0322   -3.4810   19.6550 C   0  0  0  0  0  0  0  0  0  0  0  0
   13.9158   -3.3206   18.6270 C   0  0  0  0  0  0  0  0  0  0  0  0
   13.6516   -3.6205   21.8402 C   0  0  0  0  0  0  0  0  0  0  0  0
   13.3598   -4.7013   21.4119 O   0  0  0  0  0  0  0  0  0  0  0  0
   13.1865   -2.9174   23.0080 N   0  0  0  0  0  0  0  0  0  0  0  0
   12.1538   -3.2542   23.9743 C   0  0  0  0  0  0  0  0  0  0  0  0
   12.6053   -4.3740   24.8919 C   0  0  0  0  0  0  0  0  0  0  0  0
   11.4732   -4.4192   25.9118 C   0  0  0  0  0  0  0  0  0  0  0  0
   11.0378   -3.0209   26.0807 N   0  0  0  0  0  0  0  0  0  0  0  0
    9.7831   -2.7669   26.6789 C   0  0  0  0  0  0  0  0  0  0  0  0
    9.3679   -3.6043   27.7103 C   0  0  0  0  0  0  0  0  0  0  0  0
    8.1505   -3.3702   28.3235 C   0  0  0  0  0  0  0  0  0  0  0  0
    7.3234   -2.3777   27.9905 N   0  0  0  0  0  0  0  0  0  0  0  0
    7.7468   -1.5902   26.9866 C   0  0  0  0  0  0  0  0  0  0  0  0
    6.7476   -0.5233   26.5560 C   0  0  0  0  0  0  0  0  0  0  0  0
    5.3419   -1.0701   26.2315 C   0  0  0  0  0  0  0  0  0  0  0  0
    4.4559    0.1707   26.1776 C   0  0  0  0  0  0  0  0  0  0  0  0
    5.0792    1.1556   27.1635 C   0  0  0  0  0  0  0  0  0  0  0  0
    6.4042    0.5310   27.6197 C   0  0  0  0  0  0  0  0  0  0  0  0
    8.9699   -1.7210   26.3450 N   0  0  0  0  0  0  0  0  0  0  0  0
   11.6047   -2.2067   24.9859 C   0  0  0  0  0  0  0  0  0  0  0  0
   16.6691   -0.8561   20.2387 H   0  0  0  0  0  0  0  0  0  0  0  0
   15.3925   -0.8104   19.0073 H   0  0  0  0  0  0  0  0  0  0  0  0
   15.5330    0.4987   20.1786 H   0  0  0  0  0  0  0  0  0  0  0  0
   14.9419   -0.9171   22.0246 H   0  0  0  0  0  0  0  0  0  0  0  0
   13.6780   -0.9839   20.8430 H   0  0  0  0  0  0  0  0  0  0  0  0
   15.7022   -3.0771   21.6427 H   0  0  0  0  0  0  0  0  0  0  0  0
   15.9618   -3.0850   19.2294 H   0  0  0  0  0  0  0  0  0  0  0  0
   15.2181   -4.5559   19.7812 H   0  0  0  0  0  0  0  0  0  0  0  0
   14.2060   -3.8038   17.6882 H   0  0  0  0  0  0  0  0  0  0  0  0
   12.9948   -3.7961   18.9670 H   0  0  0  0  0  0  0  0  0  0  0  0
   13.7116   -2.2734   18.4070 H   0  0  0  0  0  0  0  0  0  0  0  0
   13.7100   -2.0602   23.1062 H   0  0  0  0  0  0  0  0  0  0  0  0
   11.3208   -3.6332   23.3786 H   0  0  0  0  0  0  0  0  0  0  0  0
   13.5546   -4.1198   25.3799 H   0  0  0  0  0  0  0  0  0  0  0  0
   12.7346   -5.3309   24.3768 H   0  0  0  0  0  0  0  0  0  0  0  0
   11.8318   -4.8506   26.8521 H   0  0  0  0  0  0  0  0  0  0  0  0
   10.6516   -5.0345   25.5242 H   0  0  0  0  0  0  0  0  0  0  0  0
    9.9765   -4.4239   28.0650 H   0  0  0  0  0  0  0  0  0  0  0  0
    7.8082   -4.0076   29.1329 H   0  0  0  0  0  0  0  0  0  0  0  0
    7.1564   -0.0066   25.6856 H   0  0  0  0  0  0  0  0  0  0  0  0
    4.9814   -1.7345   27.0270 H   0  0  0  0  0  0  0  0  0  0  0  0
    5.3099   -1.6416   25.2998 H   0  0  0  0  0  0  0  0  0  0  0  0
    3.4153   -0.0587   26.4254 H   0  0  0  0  0  0  0  0  0  0  0  0
    4.4721    0.5991   25.1691 H   0  0  0  0  0  0  0  0  0  0  0  0
    4.4223    1.3383   28.0203 H   0  0  0  0  0  0  0  0  0  0  0  0
    5.2546    2.1194   26.6726 H   0  0  0  0  0  0  0  0  0  0  0  0
    7.1950    1.2813   27.7227 H   0  0  0  0  0  0  0  0  0  0  0  0
    6.2673    0.0680   28.6050 H   0  0  0  0  0  0  0  0  0  0  0  0
   12.4242   -1.5971   25.3836 H   0  0  0  0  0  0  0  0  0  0  0  0
   10.8683   -1.5350   24.5566 H   0  0  0  0  0  0  0  0  0  0  0  0
  1  2  1  0
  2  3  1  0
  3  4  1  0
  4  5  1  0
  3  6  1  0
  6  7  2  0
  6  8  1  0
  8  9  1  0
  9 10  1  0
 10 11  1  0
 11 12  1  0
 12 13  1  0
 13 14  2  0
 14 15  1  0
 15 16  2  0
 16 17  1  0
 17 18  1  0
 18 19  1  0
 19 20  1  0
 20 21  1  0
 21 22  1  0
 17 23  2  0
 12 24  1  0
 24  9  1  0
 23 13  1  0
 22 18  1  0
  1 25  1  0
  1 26  1  0
  1 27  1  0
  2 28  1  0
  2 29  1  0
  3 30  1  0
  4 31  1  0
  4 32  1  0
  5 33  1  0
  5 34  1  0
  5 35  1  0
  8 36  1  0
  9 37  1  0
 10 38  1  0
 10 39  1  0
 11 40  1  0
 11 41  1  0
 14 42  1  0
 15 43  1  0
 18 44  1  0
 19 45  1  0
 19 46  1  0
 20 47  1  0
 20 48  1  0
 21 49  1  0
 21 50  1  0
 22 51  1  0
 22 52  1  0
 24 53  1  0
 24 54  1  0
M  END
>  <Energy>  (754) 
-7.8006774193143364

>  <compound_id>  (754) 
46695

>  <target_id>  (754) 
1

>  <reference_id>  (754) 
44

>  <inspiration_ids>  (754) 
[27, 44]

>  <energy_score>  (754) 
-17.084446374657347

>  <distance_score>  (754) 
7.128229422481318

>  <path>  (754) 
/opt/xchem-fragalysis-2/maxwin/BulkDock/SCRATCH/511023/C46695-P44/C46695-P44.minimised.mol

>  <scratch_subdir>  (754) 
/opt/xchem-fragalysis-2/maxwin/BulkDock/SCRATCH/511023/C46695-P44

>  <fragmenstein_runtime>  (754) 
18.62897825241089

>  <fragmenstein_outcome>  (754) 
too moved

>  <fragmenstein_mode>  (754) 
expansion

>  <fragmenstein_error>  (754) 


$$$$
C46698-P27
     RDKit          3D

 51 53  0  0  0  0  0  0  0  0999 V2000
   15.0017    0.0915   16.7801 C   0  0  0  0  0  0  0  0  0  0  0  0
   14.7985   -0.8766   17.9375 C   0  0  0  0  0  0  0  0  0  0  0  0
   14.4185   -2.3197   17.5234 C   0  0  0  0  0  0  0  0  0  0  0  0
   13.2215   -2.3087   16.5470 C   0  0  0  0  0  0  0  0  0  0  0  0
   12.6374   -3.6713   16.2355 C   0  0  0  0  0  0  0  0  0  0  0  0
   14.3304   -3.1574   18.8415 C   0  0  0  0  0  0  0  0  0  0  0  0
   15.3523   -3.5511   19.3254 O   0  0  0  0  0  0  0  0  0  0  0  0
   12.9869   -3.2358   19.3122 N   0  0  0  0  0  0  0  0  0  0  0  0
   12.4214   -3.8950   20.4706 C   0  0  0  0  0  0  0  0  0  0  0  0
   12.0178   -5.2870   20.1552 C   0  0  0  0  0  0  0  0  0  0  0  0
   10.1726   -5.3965   20.1338 C   0  0  0  0  0  0  0  0  0  0  0  0
    8.9977   -3.8212   20.6251 N   0  0  0  0  0  0  0  0  0  0  0  0
    7.5186   -3.6535   21.9174 C   0  0  0  0  0  0  0  0  0  0  0  0
    5.9145   -2.8149   22.4977 N   0  0  0  0  0  0  0  0  0  0  0  0
    4.5298   -2.0344   23.7116 C   0  0  0  0  0  0  0  0  0  0  0  0
    2.5248   -1.6676   24.2061 C   0  0  0  0  0  0  0  0  0  0  0  0
    1.6373   -1.2105   26.0625 C   0  0  0  0  0  0  0  0  0  0  0  0
   -0.3774   -0.5373   26.0079 C   0  0  0  0  0  0  0  0  0  0  0  0
   -1.1073   -0.9006   23.8742 C   0  0  0  0  0  0  0  0  0  0  0  0
    0.6555   -1.9313   23.0456 C   0  0  0  0  0  0  0  0  0  0  0  0
    3.9727   -2.9072   22.9744 N   0  0  0  0  0  0  0  0  0  0  0  0
    5.5905   -2.7282   21.2777 S   0  0  0  0  0  0  0  0  0  0  0  0
   11.0418   -3.4920   21.1733 C   0  0  0  0  0  0  0  0  0  0  0  0
   15.7164   -0.3089   16.0545 H   0  0  0  0  0  0  0  0  0  0  0  0
   15.3951    1.0427   17.1534 H   0  0  0  0  0  0  0  0  0  0  0  0
   14.0611    0.3072   16.2649 H   0  0  0  0  0  0  0  0  0  0  0  0
   15.7257   -0.9101   18.5242 H   0  0  0  0  0  0  0  0  0  0  0  0
   14.0359   -0.4641   18.6079 H   0  0  0  0  0  0  0  0  0  0  0  0
   15.2638   -2.7526   16.9684 H   0  0  0  0  0  0  0  0  0  0  0  0
   12.4259   -1.6431   16.8995 H   0  0  0  0  0  0  0  0  0  0  0  0
   13.5661   -1.8840   15.5954 H   0  0  0  0  0  0  0  0  0  0  0  0
   11.9447   -4.0269   16.9971 H   0  0  0  0  0  0  0  0  0  0  0  0
   12.0690   -3.6190   15.3022 H   0  0  0  0  0  0  0  0  0  0  0  0
   13.4296   -4.4173   16.1514 H   0  0  0  0  0  0  0  0  0  0  0  0
   12.3728   -2.8738   18.6075 H   0  0  0  0  0  0  0  0  0  0  0  0
   13.2345   -3.8892   21.2116 H   0  0  0  0  0  0  0  0  0  0  0  0
   12.4413   -6.0184   20.8536 H   0  0  0  0  0  0  0  0  0  0  0  0
   12.4578   -5.5017   19.1904 H   0  0  0  0  0  0  0  0  0  0  0  0
   10.1074   -6.4058   20.4840 H   0  0  0  0  0  0  0  0  0  0  0  0
   10.0197   -5.6010   19.1048 H   0  0  0  0  0  0  0  0  0  0  0  0
    2.9104   -0.6891   24.5871 H   0  0  0  0  0  0  0  0  0  0  0  0
    2.2303   -0.4131   26.5501 H   0  0  0  0  0  0  0  0  0  0  0  0
    1.6844   -2.0913   26.7273 H   0  0  0  0  0  0  0  0  0  0  0  0
   -0.3574    0.5459   26.3156 H   0  0  0  0  0  0  0  0  0  0  0  0
   -0.9155   -1.0442   26.8498 H   0  0  0  0  0  0  0  0  0  0  0  0
   -1.8912   -1.6537   23.4689 H   0  0  0  0  0  0  0  0  0  0  0  0
   -1.7196   -0.3706   24.7558 H   0  0  0  0  0  0  0  0  0  0  0  0
    0.2744   -2.1627   22.0423 H   0  0  0  0  0  0  0  0  0  0  0  0
    0.4852   -3.0628   22.9869 H   0  0  0  0  0  0  0  0  0  0  0  0
   11.4132   -4.3429   21.8259 H   0  0  0  0  0  0  0  0  0  0  0  0
   11.1739   -3.0759   22.2010 H   0  0  0  0  0  0  0  0  0  0  0  0
  1  2  1  0
  2  3  1  0
  3  4  1  0
  4  5  1  0
  3  6  1  0
  6  7  2  0
  6  8  1  0
  8  9  1  0
  9 10  1  0
 10 11  1  0
 11 12  1  0
 12 13  1  0
 13 14  2  0
 14 15  1  0
 15 16  1  0
 16 17  1  0
 17 18  1  0
 18 19  1  0
 19 20  1  0
 15 21  2  0
 21 22  1  0
 12 23  1  0
 23  9  1  0
 22 13  1  0
 20 16  1  0
  1 24  1  0
  1 25  1  0
  1 26  1  0
  2 27  1  0
  2 28  1  0
  3 29  1  0
  4 30  1  0
  4 31  1  0
  5 32  1  0
  5 33  1  0
  5 34  1  0
  8 35  1  0
  9 36  1  0
 10 37  1  0
 10 38  1  0
 11 39  1  0
 11 40  1  0
 16 41  1  0
 17 42  1  0
 17 43  1  0
 18 44  1  0
 18 45  1  0
 19 46  1  0
 19 47  1  0
 20 48  1  0
 20 49  1  0
 23 50  1  0
 23 51  1  0
M  END
>  <Energy>  (755) 
2032.8692705718645

>  <compound_id>  (755) 
46698

>  <target_id>  (755) 
1

>  <reference_id>  (755) 
27

>  <inspiration_ids>  (755) 
[27, 44]

>  <energy_score>  (755) 
1933.7968034590167

>  <distance_score>  (755) 
5.083899332321517

>  <path>  (755) 
/opt/xchem-fragalysis-2/maxwin/BulkDock/SCRATCH/511023/C46698-P27/C46698-P27.minimised.mol

>  <scratch_subdir>  (755) 
/opt/xchem-fragalysis-2/maxwin/BulkDock/SCRATCH/511023/C46698-P27

>  <fragmenstein_runtime>  (755) 
16.770352125167847

>  <fragmenstein_outcome>  (755) 
too moved

>  <fragmenstein_mode>  (755) 
expansion

>  <fragmenstein_error>  (755) 


$$$$
C46698-P44
     RDKit          3D

 51 53  0  0  0  0  0  0  0  0999 V2000
   15.5029   -1.4343   17.4076 C   0  0  0  0  0  0  0  0  0  0  0  0
   15.2705   -2.0222   18.7894 C   0  0  0  0  0  0  0  0  0  0  0  0
   14.5678   -3.3964   18.8556 C   0  0  0  0  0  0  0  0  0  0  0  0
   13.2734   -3.5028   18.0313 C   0  0  0  0  0  0  0  0  0  0  0  0
   13.4444   -3.7762   16.5405 C   0  0  0  0  0  0  0  0  0  0  0  0
   14.3251   -3.6687   20.3278 C   0  0  0  0  0  0  0  0  0  0  0  0
   15.5664   -4.4527   21.0043 O   0  0  0  0  0  0  0  0  0  0  0  0
   13.6817   -3.4746   21.1770 N   0  0  0  0  0  0  0  0  0  0  0  0
   13.5944   -3.5960   22.7278 C   0  0  0  0  0  0  0  0  0  0  0  0
   14.3397   -2.4119   23.3437 C   0  0  0  0  0  0  0  0  0  0  0  0
   13.9061   -2.4314   24.8011 C   0  0  0  0  0  0  0  0  0  0  0  0
   12.5170   -2.8852   24.7743 N   0  0  0  0  0  0  0  0  0  0  0  0
   11.5519   -2.3480   25.6024 C   0  0  0  0  0  0  0  0  0  0  0  0
   10.2403   -2.2672   25.4136 N   0  0  0  0  0  0  0  0  0  0  0  0
    9.5989   -1.5795   26.4899 C   0  0  0  0  0  0  0  0  0  0  0  0
    8.1256   -1.2138   26.4567 C   0  0  0  0  0  0  0  0  0  0  0  0
    7.7514    0.1892   26.9581 C   0  0  0  0  0  0  0  0  0  0  0  0
    6.2262    0.1568   27.0879 C   0  0  0  0  0  0  0  0  0  0  0  0
    5.8576   -1.3126   27.2974 C   0  0  0  0  0  0  0  0  0  0  0  0
    7.1823   -2.0835   27.2885 C   0  0  0  0  0  0  0  0  0  0  0  0
   10.3574   -1.2186   27.5252 N   0  0  0  0  0  0  0  0  0  0  0  0
   11.9212   -1.6611   27.1732 S   0  0  0  0  0  0  0  0  0  0  0  0
   12.2405   -3.6299   23.5450 C   0  0  0  0  0  0  0  0  0  0  0  0
   14.5689   -1.1177   16.9383 H   0  0  0  0  0  0  0  0  0  0  0  0
   16.0070   -2.1530   16.7544 H   0  0  0  0  0  0  0  0  0  0  0  0
   16.1405   -0.5471   17.4838 H   0  0  0  0  0  0  0  0  0  0  0  0
   16.2501   -2.1239   19.2771 H   0  0  0  0  0  0  0  0  0  0  0  0
   14.7284   -1.2936   19.4027 H   0  0  0  0  0  0  0  0  0  0  0  0
   15.2596   -4.1715   18.5022 H   0  0  0  0  0  0  0  0  0  0  0  0
   12.6807   -4.3273   18.4404 H   0  0  0  0  0  0  0  0  0  0  0  0
   12.6827   -2.5932   18.1363 H   0  0  0  0  0  0  0  0  0  0  0  0
   13.7112   -2.8761   15.9840 H   0  0  0  0  0  0  0  0  0  0  0  0
   14.2141   -4.5281   16.3554 H   0  0  0  0  0  0  0  0  0  0  0  0
   12.5014   -4.1417   16.1194 H   0  0  0  0  0  0  0  0  0  0  0  0
   12.8487   -3.1743   21.6165 H   0  0  0  0  0  0  0  0  0  0  0  0
   14.1445   -4.5136   22.9806 H   0  0  0  0  0  0  0  0  0  0  0  0
   14.0233   -1.4736   22.8708 H   0  0  0  0  0  0  0  0  0  0  0  0
   15.4257   -2.4902   23.2333 H   0  0  0  0  0  0  0  0  0  0  0  0
   14.5097   -3.1435   25.3754 H   0  0  0  0  0  0  0  0  0  0  0  0
   14.0363   -1.4337   25.2336 H   0  0  0  0  0  0  0  0  0  0  0  0
    7.8108   -1.2757   25.4215 H   0  0  0  0  0  0  0  0  0  0  0  0
    8.1964    0.3882   27.9411 H   0  0  0  0  0  0  0  0  0  0  0  0
    8.0898    0.9792   26.2808 H   0  0  0  0  0  0  0  0  0  0  0  0
    5.8834    0.7870   27.9145 H   0  0  0  0  0  0  0  0  0  0  0  0
    5.7581    0.5303   26.1698 H   0  0  0  0  0  0  0  0  0  0  0  0
    5.3130   -1.4689   28.2339 H   0  0  0  0  0  0  0  0  0  0  0  0
    5.2139   -1.6544   26.4785 H   0  0  0  0  0  0  0  0  0  0  0  0
    7.5580   -2.1914   28.3138 H   0  0  0  0  0  0  0  0  0  0  0  0
    7.0646   -3.0903   26.8760 H   0  0  0  0  0  0  0  0  0  0  0  0
   11.9979   -4.6695   23.7881 H   0  0  0  0  0  0  0  0  0  0  0  0
   11.4050   -3.2209   22.9886 H   0  0  0  0  0  0  0  0  0  0  0  0
  1  2  1  0
  2  3  1  0
  3  4  1  0
  4  5  1  0
  3  6  1  0
  6  7  2  0
  6  8  1  0
  8  9  1  0
  9 10  1  0
 10 11  1  0
 11 12  1  0
 12 13  1  0
 13 14  2  0
 14 15  1  0
 15 16  1  0
 16 17  1  0
 17 18  1  0
 18 19  1  0
 19 20  1  0
 15 21  2  0
 21 22  1  0
 12 23  1  0
 23  9  1  0
 22 13  1  0
 20 16  1  0
  1 24  1  0
  1 25  1  0
  1 26  1  0
  2 27  1  0
  2 28  1  0
  3 29  1  0
  4 30  1  0
  4 31  1  0
  5 32  1  0
  5 33  1  0
  5 34  1  0
  8 35  1  0
  9 36  1  0
 10 37  1  0
 10 38  1  0
 11 39  1  0
 11 40  1  0
 16 41  1  0
 17 42  1  0
 17 43  1  0
 18 44  1  0
 18 45  1  0
 19 46  1  0
 19 47  1  0
 20 48  1  0
 20 49  1  0
 23 50  1  0
 23 51  1  0
M  END
>  <Energy>  (756) 
229.34022846479434

>  <compound_id>  (756) 
46698

>  <target_id>  (756) 
1

>  <reference_id>  (756) 
44

>  <inspiration_ids>  (756) 
[27, 44]

>  <energy_score>  (756) 
130.26776135190278

>  <distance_score>  (756) 
6.881401217902852

>  <path>  (756) 
/opt/xchem-fragalysis-2/maxwin/BulkDock/SCRATCH/511023/C46698-P44/C46698-P44.minimised.mol

>  <scratch_subdir>  (756) 
/opt/xchem-fragalysis-2/maxwin/BulkDock/SCRATCH/511023/C46698-P44

>  <fragmenstein_runtime>  (756) 
12.987305641174316

>  <fragmenstein_outcome>  (756) 
too moved

>  <fragmenstein_mode>  (756) 
expansion

>  <fragmenstein_error>  (756) 


$$$$
C46699-P27
     RDKit          3D

 51 53  0  0  0  0  0  0  0  0999 V2000
   13.8668    1.6139   16.7034 C   0  0  0  0  0  0  0  0  0  0  0  0
   14.1593    0.2512   17.3121 C   0  0  0  0  0  0  0  0  0  0  0  0
   13.9706   -0.9246   16.3368 C   0  0  0  0  0  0  0  0  0  0  0  0
   12.5512   -0.9859   15.7353 C   0  0  0  0  0  0  0  0  0  0  0  0
   12.3106   -2.1882   14.8361 C   0  0  0  0  0  0  0  0  0  0  0  0
   14.4525   -2.2213   17.0359 C   0  0  0  0  0  0  0  0  0  0  0  0
   15.5243   -2.6592   16.7323 O   0  0  0  0  0  0  0  0  0  0  0  0
   13.4898   -2.6830   17.9942 N   0  0  0  0  0  0  0  0  0  0  0  0
   13.4691   -3.8649   18.8176 C   0  0  0  0  0  0  0  0  0  0  0  0
   12.7979   -4.9208   18.0590 C   0  0  0  0  0  0  0  0  0  0  0  0
   11.1599   -4.9434   18.0168 C   0  0  0  0  0  0  0  0  0  0  0  0
   10.1144   -5.4166   19.6783 N   0  0  0  0  0  0  0  0  0  0  0  0
    8.5454   -4.4985   20.1744 C   0  0  0  0  0  0  0  0  0  0  0  0
    7.8164   -3.5765   21.2248 N   0  0  0  0  0  0  0  0  0  0  0  0
    6.0122   -2.9195   21.2765 C   0  0  0  0  0  0  0  0  0  0  0  0
    5.2699   -2.0052   23.0911 C   0  0  0  0  0  0  0  0  0  0  0  0
    4.1233   -1.1425   24.3948 C   0  0  0  0  0  0  0  0  0  0  0  0
    4.6177   -1.9859   25.4628 C   0  0  0  0  0  0  0  0  0  0  0  0
    4.2147   -2.9394   24.3744 C   0  0  0  0  0  0  0  0  0  0  0  0
    5.3870   -3.5203   20.1264 N   0  0  0  0  0  0  0  0  0  0  0  0
    6.6926   -5.0817   19.2786 S   0  0  0  0  0  0  0  0  0  0  0  0
   11.7473   -5.0578   20.5527 C   0  0  0  0  0  0  0  0  0  0  0  0
   12.8328   -3.9225   20.1830 C   0  0  0  0  0  0  0  0  0  0  0  0
   12.8033    1.7322   16.4760 H   0  0  0  0  0  0  0  0  0  0  0  0
   14.1405    2.4053   17.4088 H   0  0  0  0  0  0  0  0  0  0  0  0
   14.4407    1.7666   15.7841 H   0  0  0  0  0  0  0  0  0  0  0  0
   15.1962    0.2490   17.6726 H   0  0  0  0  0  0  0  0  0  0  0  0
   13.5347    0.1189   18.2004 H   0  0  0  0  0  0  0  0  0  0  0  0
   14.6597   -0.7712   15.4931 H   0  0  0  0  0  0  0  0  0  0  0  0
   11.7878   -0.9675   16.5184 H   0  0  0  0  0  0  0  0  0  0  0  0
   12.3809   -0.0876   15.1298 H   0  0  0  0  0  0  0  0  0  0  0  0
   11.3020   -2.1447   14.4160 H   0  0  0  0  0  0  0  0  0  0  0  0
   13.0224   -2.2004   14.0052 H   0  0  0  0  0  0  0  0  0  0  0  0
   12.3945   -3.1282   15.3862 H   0  0  0  0  0  0  0  0  0  0  0  0
   12.6648   -2.1184   17.9255 H   0  0  0  0  0  0  0  0  0  0  0  0
   14.5295   -4.1326   18.9252 H   0  0  0  0  0  0  0  0  0  0  0  0
   13.1470   -4.9409   17.0170 H   0  0  0  0  0  0  0  0  0  0  0  0
   13.2019   -5.7811   18.5547 H   0  0  0  0  0  0  0  0  0  0  0  0
   11.0552   -3.9897   17.4570 H   0  0  0  0  0  0  0  0  0  0  0  0
   10.9174   -5.4444   17.0975 H   0  0  0  0  0  0  0  0  0  0  0  0
    5.0489   -1.1396   22.4525 H   0  0  0  0  0  0  0  0  0  0  0  0
    3.0263   -1.2713   24.5057 H   0  0  0  0  0  0  0  0  0  0  0  0
    4.1960   -0.1100   24.7690 H   0  0  0  0  0  0  0  0  0  0  0  0
    4.0118   -2.0109   26.3729 H   0  0  0  0  0  0  0  0  0  0  0  0
    5.6640   -1.8411   25.7282 H   0  0  0  0  0  0  0  0  0  0  0  0
    3.1813   -3.0296   24.0241 H   0  0  0  0  0  0  0  0  0  0  0  0
    4.4186   -3.8908   24.8312 H   0  0  0  0  0  0  0  0  0  0  0  0
   12.2624   -6.0238   20.5492 H   0  0  0  0  0  0  0  0  0  0  0  0
   11.6281   -4.6934   21.5649 H   0  0  0  0  0  0  0  0  0  0  0  0
   13.6542   -4.0968   20.8967 H   0  0  0  0  0  0  0  0  0  0  0  0
   12.4896   -2.9496   20.4660 H   0  0  0  0  0  0  0  0  0  0  0  0
  1  2  1  0
  2  3  1  0
  3  4  1  0
  4  5  1  0
  3  6  1  0
  6  7  2  0
  6  8  1  0
  8  9  1  0
  9 10  1  0
 10 11  1  0
 11 12  1  0
 12 13  1  0
 13 14  2  0
 14 15  1  0
 15 16  1  0
 16 17  1  0
 17 18  1  0
 18 19  1  0
 15 20  2  0
 20 21  1  0
 12 22  1  0
 22 23  1  0
 23  9  1  0
 21 13  1  0
 19 16  1  0
  1 24  1  0
  1 25  1  0
  1 26  1  0
  2 27  1  0
  2 28  1  0
  3 29  1  0
  4 30  1  0
  4 31  1  0
  5 32  1  0
  5 33  1  0
  5 34  1  0
  8 35  1  0
  9 36  1  0
 10 37  1  0
 10 38  1  0
 11 39  1  0
 11 40  1  0
 16 41  1  0
 17 42  1  0
 17 43  1  0
 18 44  1  0
 18 45  1  0
 19 46  1  0
 19 47  1  0
 22 48  1  0
 22 49  1  0
 23 50  1  0
 23 51  1  0
M  END
>  <Energy>  (757) 
744.02565105209931

>  <compound_id>  (757) 
46699

>  <target_id>  (757) 
1

>  <reference_id>  (757) 
27

>  <inspiration_ids>  (757) 
[27, 44]

>  <energy_score>  (757) 
697.768153483077

>  <distance_score>  (757) 
6.652383535188082

>  <path>  (757) 
/opt/xchem-fragalysis-2/maxwin/BulkDock/SCRATCH/511023/C46699-P27/C46699-P27.minimised.mol

>  <scratch_subdir>  (757) 
/opt/xchem-fragalysis-2/maxwin/BulkDock/SCRATCH/511023/C46699-P27

>  <fragmenstein_runtime>  (757) 
15.757845163345337

>  <fragmenstein_outcome>  (757) 
too moved

>  <fragmenstein_mode>  (757) 
expansion

>  <fragmenstein_error>  (757) 


$$$$
C46699-P44
     RDKit          3D

 51 53  0  0  0  0  0  0  0  0999 V2000
   13.8490   -3.7192   20.3019 C   0  0  0  0  0  0  0  0  0  0  0  0
   14.8195   -3.0196   21.2421 C   0  0  0  0  0  0  0  0  0  0  0  0
   14.6054   -1.4986   21.3425 C   0  0  0  0  0  0  0  0  0  0  0  0
   15.5129   -0.7077   20.3667 C   0  0  0  0  0  0  0  0  0  0  0  0
   15.6318   -1.2559   18.9438 C   0  0  0  0  0  0  0  0  0  0  0  0
   14.7878   -1.0657   22.8332 C   0  0  0  0  0  0  0  0  0  0  0  0
   15.8499   -0.6391   23.1875 O   0  0  0  0  0  0  0  0  0  0  0  0
   13.5871   -1.3607   23.5909 N   0  0  0  0  0  0  0  0  0  0  0  0
   13.2663   -1.1423   24.9954 C   0  0  0  0  0  0  0  0  0  0  0  0
   12.5311   -2.3267   25.6229 C   0  0  0  0  0  0  0  0  0  0  0  0
   11.0088   -2.2804   25.4724 C   0  0  0  0  0  0  0  0  0  0  0  0
   10.4605   -0.9947   25.9392 N   0  0  0  0  0  0  0  0  0  0  0  0
    9.1226   -0.9007   26.3436 C   0  0  0  0  0  0  0  0  0  0  0  0
    8.3117    0.1385   26.1686 N   0  0  0  0  0  0  0  0  0  0  0  0
    7.0363   -0.1054   26.7197 C   0  0  0  0  0  0  0  0  0  0  0  0
    5.8758    0.9673   26.5750 C   0  0  0  0  0  0  0  0  0  0  0  0
    4.9909    1.2227   27.8259 C   0  0  0  0  0  0  0  0  0  0  0  0
    3.7906    1.3625   26.8622 C   0  0  0  0  0  0  0  0  0  0  0  0
    4.5779    0.4690   25.8807 C   0  0  0  0  0  0  0  0  0  0  0  0
    6.8276   -1.2602   27.3498 N   0  0  0  0  0  0  0  0  0  0  0  0
    8.2494   -2.1271   27.2421 S   0  0  0  0  0  0  0  0  0  0  0  0
   11.0290    0.1683   25.2381 C   0  0  0  0  0  0  0  0  0  0  0  0
   12.5630    0.1854   25.2789 C   0  0  0  0  0  0  0  0  0  0  0  0
   12.8412   -3.6988   20.7245 H   0  0  0  0  0  0  0  0  0  0  0  0
   13.8218   -3.2831   19.3034 H   0  0  0  0  0  0  0  0  0  0  0  0
   14.1307   -4.7724   20.1955 H   0  0  0  0  0  0  0  0  0  0  0  0
   15.8494   -3.2405   20.9376 H   0  0  0  0  0  0  0  0  0  0  0  0
   14.7070   -3.4894   22.2277 H   0  0  0  0  0  0  0  0  0  0  0  0
   13.5841   -1.2427   21.0793 H   0  0  0  0  0  0  0  0  0  0  0  0
   15.1418    0.3242   20.3188 H   0  0  0  0  0  0  0  0  0  0  0  0
   16.5277   -0.6377   20.7779 H   0  0  0  0  0  0  0  0  0  0  0  0
   16.1421   -0.5241   18.3088 H   0  0  0  0  0  0  0  0  0  0  0  0
   16.2306   -2.1717   18.9244 H   0  0  0  0  0  0  0  0  0  0  0  0
   14.6665   -1.4756   18.4914 H   0  0  0  0  0  0  0  0  0  0  0  0
   12.8447   -1.6311   22.9468 H   0  0  0  0  0  0  0  0  0  0  0  0
   14.2531   -1.0821   25.4740 H   0  0  0  0  0  0  0  0  0  0  0  0
   12.9120   -3.2745   25.2237 H   0  0  0  0  0  0  0  0  0  0  0  0
   12.7546   -2.3284   26.6985 H   0  0  0  0  0  0  0  0  0  0  0  0
   10.7465   -2.4492   24.4266 H   0  0  0  0  0  0  0  0  0  0  0  0
   10.5975   -3.1201   26.0427 H   0  0  0  0  0  0  0  0  0  0  0  0
    6.2581    1.8989   26.1363 H   0  0  0  0  0  0  0  0  0  0  0  0
    5.2353    2.1195   28.4016 H   0  0  0  0  0  0  0  0  0  0  0  0
    4.8968    0.3760   28.5158 H   0  0  0  0  0  0  0  0  0  0  0  0
    2.8415    0.9559   27.2194 H   0  0  0  0  0  0  0  0  0  0  0  0
    3.6315    2.3841   26.4989 H   0  0  0  0  0  0  0  0  0  0  0  0
    4.3669   -0.6004   25.9960 H   0  0  0  0  0  0  0  0  0  0  0  0
    4.4806    0.7379   24.8276 H   0  0  0  0  0  0  0  0  0  0  0  0
   10.6855    1.0958   25.7154 H   0  0  0  0  0  0  0  0  0  0  0  0
   10.6705    0.2134   24.2092 H   0  0  0  0  0  0  0  0  0  0  0  0
   12.8447    0.4859   26.2982 H   0  0  0  0  0  0  0  0  0  0  0  0
   12.9378    0.9743   24.6156 H   0  0  0  0  0  0  0  0  0  0  0  0
  1  2  1  0
  2  3  1  0
  3  4  1  0
  4  5  1  0
  3  6  1  0
  6  7  2  0
  6  8  1  0
  8  9  1  0
  9 10  1  0
 10 11  1  0
 11 12  1  0
 12 13  1  0
 13 14  2  0
 14 15  1  0
 15 16  1  0
 16 17  1  0
 17 18  1  0
 18 19  1  0
 15 20  2  0
 20 21  1  0
 12 22  1  0
 22 23  1  0
 23  9  1  0
 21 13  1  0
 19 16  1  0
  1 24  1  0
  1 25  1  0
  1 26  1  0
  2 27  1  0
  2 28  1  0
  3 29  1  0
  4 30  1  0
  4 31  1  0
  5 32  1  0
  5 33  1  0
  5 34  1  0
  8 35  1  0
  9 36  1  0
 10 37  1  0
 10 38  1  0
 11 39  1  0
 11 40  1  0
 16 41  1  0
 17 42  1  0
 17 43  1  0
 18 44  1  0
 18 45  1  0
 19 46  1  0
 19 47  1  0
 22 48  1  0
 22 49  1  0
 23 50  1  0
 23 51  1  0
M  END
>  <Energy>  (758) 
3.291461990969081

>  <compound_id>  (758) 
46699

>  <target_id>  (758) 
1

>  <reference_id>  (758) 
44

>  <inspiration_ids>  (758) 
[27, 44]

>  <energy_score>  (758) 
-42.96603557805986

>  <distance_score>  (758) 
7.464166494594169

>  <path>  (758) 
/opt/xchem-fragalysis-2/maxwin/BulkDock/SCRATCH/511023/C46699-P44/C46699-P44.minimised.mol

>  <scratch_subdir>  (758) 
/opt/xchem-fragalysis-2/maxwin/BulkDock/SCRATCH/511023/C46699-P44

>  <fragmenstein_runtime>  (758) 
16.549265146255493

>  <fragmenstein_outcome>  (758) 
too moved

>  <fragmenstein_mode>  (758) 
expansion

>  <fragmenstein_error>  (758) 


$$$$
C10645-P27
     RDKit          3D

 57 59  0  0  0  0  0  0  0  0999 V2000
   15.7764    2.5613   18.6236 C   0  0  0  0  0  0  0  0  0  0  0  0
   15.9411    1.0910   18.2711 C   0  0  0  0  0  0  0  0  0  0  0  0
   14.6961    0.2708   18.6083 C   0  0  0  0  0  0  0  0  0  0  0  0
   14.5275   -0.9249   17.6259 C   0  0  0  0  0  0  0  0  0  0  0  0
   13.8298   -0.5405   16.3248 C   0  0  0  0  0  0  0  0  0  0  0  0
   14.7099   -0.2666   20.0698 C   0  0  0  0  0  0  0  0  0  0  0  0
   15.1373   -1.3658   20.2805 O   0  0  0  0  0  0  0  0  0  0  0  0
   14.0791    0.6858   20.9554 N   0  0  0  0  0  0  0  0  0  0  0  0
   13.6765    0.5701   22.3530 C   0  0  0  0  0  0  0  0  0  0  0  0
   12.3194    1.3342   22.5313 C   0  0  0  0  0  0  0  0  0  0  0  0
   12.6958    1.4204   23.9932 C   0  0  0  0  0  0  0  0  0  0  0  0
   12.0570    0.3380   24.8696 C   0  0  0  0  0  0  0  0  0  0  0  0
   10.8631    1.3600   24.9852 C   0  0  0  0  0  0  0  0  0  0  0  0
   10.0011    1.3082   26.1671 N   0  0  0  0  0  0  0  0  0  0  0  0
    9.1027    2.3053   26.7389 C   0  0  0  0  0  0  0  0  0  0  0  0
    8.9046    3.4490   26.4295 O   0  0  0  0  0  0  0  0  0  0  0  0
    8.2110    1.6633   27.8810 C   0  0  0  0  0  0  0  0  0  0  0  0
    6.7615    1.7743   27.5760 N   0  0  0  0  0  0  0  0  0  0  0  0
    5.9066    0.8407   28.3088 C   0  0  0  0  0  0  0  0  0  0  0  0
    4.5060    1.3525   27.9947 C   0  0  0  0  0  0  0  0  0  0  0  0
    4.6734    2.8575   27.8306 C   0  0  0  0  0  0  0  0  0  0  0  0
    6.1837    3.0969   27.8365 C   0  0  0  0  0  0  0  0  0  0  0  0
   11.9661    2.4655   24.8260 C   0  0  0  0  0  0  0  0  0  0  0  0
   14.1570    1.4279   23.5553 C   0  0  0  0  0  0  0  0  0  0  0  0
   16.6566    3.1250   18.2976 H   0  0  0  0  0  0  0  0  0  0  0  0
   15.6752    2.7057   19.7029 H   0  0  0  0  0  0  0  0  0  0  0  0
   14.8997    2.9925   18.1299 H   0  0  0  0  0  0  0  0  0  0  0  0
   16.8180    0.6911   18.7940 H   0  0  0  0  0  0  0  0  0  0  0  0
   16.1584    1.0337   17.1982 H   0  0  0  0  0  0  0  0  0  0  0  0
   13.7993    0.8930   18.4909 H   0  0  0  0  0  0  0  0  0  0  0  0
   13.9332   -1.7208   18.0897 H   0  0  0  0  0  0  0  0  0  0  0  0
   15.5065   -1.3660   17.4009 H   0  0  0  0  0  0  0  0  0  0  0  0
   14.3902    0.2286   15.7854 H   0  0  0  0  0  0  0  0  0  0  0  0
   13.7399   -1.4151   15.6727 H   0  0  0  0  0  0  0  0  0  0  0  0
   12.8224   -0.1597   16.5204 H   0  0  0  0  0  0  0  0  0  0  0  0
   13.9196    1.5505   20.4513 H   0  0  0  0  0  0  0  0  0  0  0  0
   13.6596   -0.4877   22.6441 H   0  0  0  0  0  0  0  0  0  0  0  0
   12.2755    2.3097   22.0269 H   0  0  0  0  0  0  0  0  0  0  0  0
   11.3985    0.8080   22.3031 H   0  0  0  0  0  0  0  0  0  0  0  0
   11.8140   -0.6178   24.4010 H   0  0  0  0  0  0  0  0  0  0  0  0
   12.5861    0.1456   25.8104 H   0  0  0  0  0  0  0  0  0  0  0  0
   10.1974    1.3229   24.1108 H   0  0  0  0  0  0  0  0  0  0  0  0
    9.9686    0.4691   26.7348 H   0  0  0  0  0  0  0  0  0  0  0  0
    8.4644    0.6022   27.9791 H   0  0  0  0  0  0  0  0  0  0  0  0
    8.4675    2.1465   28.8308 H   0  0  0  0  0  0  0  0  0  0  0  0
    6.0969    0.8888   29.3882 H   0  0  0  0  0  0  0  0  0  0  0  0
    6.0390   -0.1921   27.9717 H   0  0  0  0  0  0  0  0  0  0  0  0
    4.1413    0.9157   27.0571 H   0  0  0  0  0  0  0  0  0  0  0  0
    3.7911    1.1011   28.7841 H   0  0  0  0  0  0  0  0  0  0  0  0
    4.2216    3.1875   26.8887 H   0  0  0  0  0  0  0  0  0  0  0  0
    4.1895    3.4037   28.6471 H   0  0  0  0  0  0  0  0  0  0  0  0
    6.4605    3.8337   27.0772 H   0  0  0  0  0  0  0  0  0  0  0  0
    6.4888    3.4791   28.8187 H   0  0  0  0  0  0  0  0  0  0  0  0
   12.4742    2.7438   25.7563 H   0  0  0  0  0  0  0  0  0  0  0  0
   11.6496    3.3736   24.3060 H   0  0  0  0  0  0  0  0  0  0  0  0
   14.5486    2.4147   23.2827 H   0  0  0  0  0  0  0  0  0  0  0  0
   14.8614    0.9387   24.2329 H   0  0  0  0  0  0  0  0  0  0  0  0
  1  2  1  0
  2  3  1  0
  3  4  1  0
  4  5  1  0
  3  6  1  0
  6  7  2  0
  6  8  1  0
  8  9  1  0
  9 10  1  0
 10 11  1  0
 11 12  1  0
 12 13  1  0
 13 14  1  0
 14 15  1  0
 15 16  2  0
 15 17  1  0
 17 18  1  0
 18 19  1  0
 19 20  1  0
 20 21  1  0
 21 22  1  0
 13 23  1  0
 11 24  1  0
 24  9  1  0
 23 11  1  0
 22 18  1  0
  1 25  1  0
  1 26  1  0
  1 27  1  0
  2 28  1  0
  2 29  1  0
  3 30  1  0
  4 31  1  0
  4 32  1  0
  5 33  1  0
  5 34  1  0
  5 35  1  0
  8 36  1  0
  9 37  1  0
 10 38  1  0
 10 39  1  0
 12 40  1  0
 12 41  1  0
 13 42  1  0
 14 43  1  0
 17 44  1  0
 17 45  1  0
 19 46  1  0
 19 47  1  0
 20 48  1  0
 20 49  1  0
 21 50  1  0
 21 51  1  0
 22 52  1  0
 22 53  1  0
 23 54  1  0
 23 55  1  0
 24 56  1  0
 24 57  1  0
M  END
>  <Energy>  (759) 
79.801619197559177

>  <compound_id>  (759) 
10645

>  <target_id>  (759) 
1

>  <reference_id>  (759) 
27

>  <inspiration_ids>  (759) 
[27, 44]

>  <energy_score>  (759) 
-7.097773960456436

>  <distance_score>  (759) 
7.168062548324066

>  <path>  (759) 
/opt/xchem-fragalysis-2/maxwin/BulkDock/SCRATCH/511023/C10645-P27/C10645-P27.minimised.mol

>  <scratch_subdir>  (759) 
/opt/xchem-fragalysis-2/maxwin/BulkDock/SCRATCH/511023/C10645-P27

>  <fragmenstein_runtime>  (759) 
41.18238401412964

>  <fragmenstein_outcome>  (759) 
too moved

>  <fragmenstein_mode>  (759) 
expansion

>  <fragmenstein_error>  (759) 


$$$$
C10645-P44
     RDKit          3D

 57 59  0  0  0  0  0  0  0  0999 V2000
   16.8336   -1.1494   15.8710 C   0  0  0  0  0  0  0  0  0  0  0  0
   16.4200   -2.1115   16.9786 C   0  0  0  0  0  0  0  0  0  0  0  0
   15.0194   -1.8016   17.5054 C   0  0  0  0  0  0  0  0  0  0  0  0
   13.8919   -1.9631   16.4450 C   0  0  0  0  0  0  0  0  0  0  0  0
   13.8821   -3.2689   15.6604 C   0  0  0  0  0  0  0  0  0  0  0  0
   14.6828   -2.5586   18.8205 C   0  0  0  0  0  0  0  0  0  0  0  0
   13.8142   -3.3804   18.8022 O   0  0  0  0  0  0  0  0  0  0  0  0
   15.4673   -2.0397   19.9205 N   0  0  0  0  0  0  0  0  0  0  0  0
   15.3775   -2.2860   21.3642 C   0  0  0  0  0  0  0  0  0  0  0  0
   16.0026   -1.2353   22.3199 C   0  0  0  0  0  0  0  0  0  0  0  0
   14.6619   -1.1297   23.0245 C   0  0  0  0  0  0  0  0  0  0  0  0
   14.4275   -1.6569   24.4204 C   0  0  0  0  0  0  0  0  0  0  0  0
   13.7262   -0.3068   24.7900 C   0  0  0  0  0  0  0  0  0  0  0  0
   12.2660   -0.3553   25.0290 N   0  0  0  0  0  0  0  0  0  0  0  0
   11.4356    0.2896   26.0633 C   0  0  0  0  0  0  0  0  0  0  0  0
   11.7477    0.9506   27.0154 O   0  0  0  0  0  0  0  0  0  0  0  0
    9.9243   -0.0390   25.7810 C   0  0  0  0  0  0  0  0  0  0  0  0
    8.9359    0.4241   26.8004 N   0  0  0  0  0  0  0  0  0  0  0  0
    7.6335   -0.2627   26.7056 C   0  0  0  0  0  0  0  0  0  0  0  0
    6.5459    0.7874   26.9267 C   0  0  0  0  0  0  0  0  0  0  0  0
    7.3004    1.9980   27.4347 C   0  0  0  0  0  0  0  0  0  0  0  0
    8.6598    1.8642   26.7604 C   0  0  0  0  0  0  0  0  0  0  0  0
   14.1407    0.2446   23.3976 C   0  0  0  0  0  0  0  0  0  0  0  0
   13.9908   -1.8642   21.8998 C   0  0  0  0  0  0  0  0  0  0  0  0
   17.8676   -1.3495   15.5714 H   0  0  0  0  0  0  0  0  0  0  0  0
   16.7773   -0.1098   16.2093 H   0  0  0  0  0  0  0  0  0  0  0  0
   16.2068   -1.2596   14.9817 H   0  0  0  0  0  0  0  0  0  0  0  0
   17.1556   -2.0342   17.7878 H   0  0  0  0  0  0  0  0  0  0  0  0
   16.4825   -3.1456   16.6215 H   0  0  0  0  0  0  0  0  0  0  0  0
   15.0195   -0.7379   17.7778 H   0  0  0  0  0  0  0  0  0  0  0  0
   13.9531   -1.1328   15.7309 H   0  0  0  0  0  0  0  0  0  0  0  0
   12.9158   -1.8674   16.9337 H   0  0  0  0  0  0  0  0  0  0  0  0
   13.8469   -4.1384   16.3221 H   0  0  0  0  0  0  0  0  0  0  0  0
   13.0012   -3.3072   15.0108 H   0  0  0  0  0  0  0  0  0  0  0  0
   14.7641   -3.3591   15.0200 H   0  0  0  0  0  0  0  0  0  0  0  0
   16.0587   -1.2903   19.5802 H   0  0  0  0  0  0  0  0  0  0  0  0
   15.6483   -3.3169   21.6198 H   0  0  0  0  0  0  0  0  0  0  0  0
   16.3260   -0.3139   21.8217 H   0  0  0  0  0  0  0  0  0  0  0  0
   16.8313   -1.6081   22.9294 H   0  0  0  0  0  0  0  0  0  0  0  0
   13.7916   -2.5444   24.5017 H   0  0  0  0  0  0  0  0  0  0  0  0
   15.3421   -1.8381   24.9962 H   0  0  0  0  0  0  0  0  0  0  0  0
   14.2274    0.2117   25.6166 H   0  0  0  0  0  0  0  0  0  0  0  0
   11.6566   -0.7685   24.3196 H   0  0  0  0  0  0  0  0  0  0  0  0
    9.6799    0.3898   24.8048 H   0  0  0  0  0  0  0  0  0  0  0  0
    9.8688   -1.1334   25.7256 H   0  0  0  0  0  0  0  0  0  0  0  0
    7.5848   -1.0313   27.4846 H   0  0  0  0  0  0  0  0  0  0  0  0
    7.4848   -0.7618   25.7468 H   0  0  0  0  0  0  0  0  0  0  0  0
    6.0569    1.0255   25.9750 H   0  0  0  0  0  0  0  0  0  0  0  0
    5.7790    0.4543   27.6322 H   0  0  0  0  0  0  0  0  0  0  0  0
    6.7990    2.9373   27.1846 H   0  0  0  0  0  0  0  0  0  0  0  0
    7.4099    1.9439   28.5247 H   0  0  0  0  0  0  0  0  0  0  0  0
    8.5963    2.2376   25.7323 H   0  0  0  0  0  0  0  0  0  0  0  0
    9.4248    2.4396   27.2901 H   0  0  0  0  0  0  0  0  0  0  0  0
   14.9129    1.0205   23.4609 H   0  0  0  0  0  0  0  0  0  0  0  0
   13.3244    0.6361   22.7830 H   0  0  0  0  0  0  0  0  0  0  0  0
   13.4858   -1.1704   21.2299 H   0  0  0  0  0  0  0  0  0  0  0  0
   13.3267   -2.6929   22.1567 H   0  0  0  0  0  0  0  0  0  0  0  0
  1  2  1  0
  2  3  1  0
  3  4  1  0
  4  5  1  0
  3  6  1  0
  6  7  2  0
  6  8  1  0
  8  9  1  0
  9 10  1  0
 10 11  1  0
 11 12  1  0
 12 13  1  0
 13 14  1  0
 14 15  1  0
 15 16  2  0
 15 17  1  0
 17 18  1  0
 18 19  1  0
 19 20  1  0
 20 21  1  0
 21 22  1  0
 13 23  1  0
 11 24  1  0
 24  9  1  0
 23 11  1  0
 22 18  1  0
  1 25  1  0
  1 26  1  0
  1 27  1  0
  2 28  1  0
  2 29  1  0
  3 30  1  0
  4 31  1  0
  4 32  1  0
  5 33  1  0
  5 34  1  0
  5 35  1  0
  8 36  1  0
  9 37  1  0
 10 38  1  0
 10 39  1  0
 12 40  1  0
 12 41  1  0
 13 42  1  0
 14 43  1  0
 17 44  1  0
 17 45  1  0
 19 46  1  0
 19 47  1  0
 20 48  1  0
 20 49  1  0
 21 50  1  0
 21 51  1  0
 22 52  1  0
 22 53  1  0
 23 54  1  0
 23 55  1  0
 24 56  1  0
 24 57  1  0
M  END
>  <Energy>  (760) 
71.05414469807728

>  <compound_id>  (760) 
10645

>  <target_id>  (760) 
1

>  <reference_id>  (760) 
44

>  <inspiration_ids>  (760) 
[27, 44]

>  <energy_score>  (760) 
-15.845248459940137

>  <distance_score>  (760) 
7.412765002077311

>  <path>  (760) 
/opt/xchem-fragalysis-2/maxwin/BulkDock/SCRATCH/511023/C10645-P44/C10645-P44.minimised.mol

>  <scratch_subdir>  (760) 
/opt/xchem-fragalysis-2/maxwin/BulkDock/SCRATCH/511023/C10645-P44

>  <fragmenstein_runtime>  (760) 
35.04809069633484

>  <fragmenstein_outcome>  (760) 
too moved

>  <fragmenstein_mode>  (760) 
expansion

>  <fragmenstein_error>  (760) 


$$$$
C46701-P27
     RDKit          3D

 53 55  0  0  0  0  0  0  0  0999 V2000
   15.1206   -0.0432   17.4153 C   0  0  0  0  0  0  0  0  0  0  0  0
   15.7480   -1.0767   18.3466 C   0  0  0  0  0  0  0  0  0  0  0  0
   14.7023   -1.8967   19.1227 C   0  0  0  0  0  0  0  0  0  0  0  0
   13.7902   -2.7545   18.2124 C   0  0  0  0  0  0  0  0  0  0  0  0
   14.4929   -3.6456   17.1996 C   0  0  0  0  0  0  0  0  0  0  0  0
   15.3534   -2.7744   20.2268 C   0  0  0  0  0  0  0  0  0  0  0  0
   16.4059   -3.3020   20.0008 O   0  0  0  0  0  0  0  0  0  0  0  0
   14.4979   -2.8322   21.3975 N   0  0  0  0  0  0  0  0  0  0  0  0
   14.6036   -3.6258   22.6269 C   0  0  0  0  0  0  0  0  0  0  0  0
   14.9594   -2.8274   23.9122 C   0  0  0  0  0  0  0  0  0  0  0  0
   13.5203   -2.9742   24.3576 C   0  0  0  0  0  0  0  0  0  0  0  0
   13.2388   -3.9853   23.2702 C   0  0  0  0  0  0  0  0  0  0  0  0
   12.6869   -1.7180   24.4480 C   0  0  0  0  0  0  0  0  0  0  0  0
   12.7122   -1.8402   25.9896 C   0  0  0  0  0  0  0  0  0  0  0  0
   11.4092   -1.6102   26.6526 N   0  0  0  0  0  0  0  0  0  0  0  0
   10.5605   -0.4286   26.7029 C   0  0  0  0  0  0  0  0  0  0  0  0
   10.6652    0.6341   26.1531 O   0  0  0  0  0  0  0  0  0  0  0  0
    9.4010   -0.6156   27.7381 C   0  0  0  0  0  0  0  0  0  0  0  0
    8.3744    0.5304   27.7654 C   0  0  0  0  0  0  0  0  0  0  0  0
    7.0734   -0.0011   28.3593 C   0  0  0  0  0  0  0  0  0  0  0  0
    6.7747   -1.3255   27.6842 C   0  0  0  0  0  0  0  0  0  0  0  0
    8.4039   -2.1034   27.4353 S   0  0  0  0  0  0  0  0  0  0  0  0
   13.1601   -3.3207   25.7928 C   0  0  0  0  0  0  0  0  0  0  0  0
   14.5576   -0.5186   16.6071 H   0  0  0  0  0  0  0  0  0  0  0  0
   15.9027    0.5713   16.9582 H   0  0  0  0  0  0  0  0  0  0  0  0
   14.4456    0.6214   17.9639 H   0  0  0  0  0  0  0  0  0  0  0  0
   16.4180   -1.7297   17.7761 H   0  0  0  0  0  0  0  0  0  0  0  0
   16.3870   -0.5487   19.0661 H   0  0  0  0  0  0  0  0  0  0  0  0
   14.0819   -1.1566   19.6415 H   0  0  0  0  0  0  0  0  0  0  0  0
   13.1151   -2.1000   17.6500 H   0  0  0  0  0  0  0  0  0  0  0  0
   13.1640   -3.3955   18.8429 H   0  0  0  0  0  0  0  0  0  0  0  0
   15.2097   -4.3129   17.6865 H   0  0  0  0  0  0  0  0  0  0  0  0
   13.7562   -4.2664   16.6797 H   0  0  0  0  0  0  0  0  0  0  0  0
   15.0219   -3.0596   16.4428 H   0  0  0  0  0  0  0  0  0  0  0  0
   13.6367   -2.3221   21.2060 H   0  0  0  0  0  0  0  0  0  0  0  0
   15.2467   -4.4993   22.4683 H   0  0  0  0  0  0  0  0  0  0  0  0
   15.6841   -3.3447   24.5515 H   0  0  0  0  0  0  0  0  0  0  0  0
   15.3161   -1.8055   23.7491 H   0  0  0  0  0  0  0  0  0  0  0  0
   13.1930   -5.0232   23.6207 H   0  0  0  0  0  0  0  0  0  0  0  0
   12.3615   -3.8013   22.6480 H   0  0  0  0  0  0  0  0  0  0  0  0
   13.1219   -0.7977   24.0498 H   0  0  0  0  0  0  0  0  0  0  0  0
   11.6783   -1.8379   24.0660 H   0  0  0  0  0  0  0  0  0  0  0  0
   13.4948   -1.2244   26.4505 H   0  0  0  0  0  0  0  0  0  0  0  0
   10.9673   -2.3592   27.1824 H   0  0  0  0  0  0  0  0  0  0  0  0
    9.8612   -0.7130   28.7286 H   0  0  0  0  0  0  0  0  0  0  0  0
    8.7569    1.3637   28.3666 H   0  0  0  0  0  0  0  0  0  0  0  0
    8.2006    0.9390   26.7665 H   0  0  0  0  0  0  0  0  0  0  0  0
    6.2515    0.7089   28.2219 H   0  0  0  0  0  0  0  0  0  0  0  0
    7.1956   -0.1496   29.4398 H   0  0  0  0  0  0  0  0  0  0  0  0
    6.1347   -1.9602   28.3033 H   0  0  0  0  0  0  0  0  0  0  0  0
    6.2876   -1.1840   26.7177 H   0  0  0  0  0  0  0  0  0  0  0  0
   12.3445   -4.0477   25.8871 H   0  0  0  0  0  0  0  0  0  0  0  0
   13.9873   -3.6410   26.4328 H   0  0  0  0  0  0  0  0  0  0  0  0
  1  2  1  0
  2  3  1  0
  3  4  1  0
  4  5  1  0
  3  6  1  0
  6  7  2  0
  6  8  1  0
  8  9  1  0
  9 10  1  0
 10 11  1  0
 11 12  1  0
 11 13  1  0
 13 14  1  0
 14 15  1  0
 15 16  1  0
 16 17  2  0
 16 18  1  0
 18 19  1  0
 19 20  1  0
 20 21  1  0
 21 22  1  0
 14 23  1  0
 12  9  1  0
 22 18  1  0
 23 11  1  0
  1 24  1  0
  1 25  1  0
  1 26  1  0
  2 27  1  0
  2 28  1  0
  3 29  1  0
  4 30  1  0
  4 31  1  0
  5 32  1  0
  5 33  1  0
  5 34  1  0
  8 35  1  0
  9 36  1  0
 10 37  1  0
 10 38  1  0
 12 39  1  0
 12 40  1  0
 13 41  1  0
 13 42  1  0
 14 43  1  0
 15 44  1  0
 18 45  1  0
 19 46  1  0
 19 47  1  0
 20 48  1  0
 20 49  1  0
 21 50  1  0
 21 51  1  0
 23 52  1  0
 23 53  1  0
M  END
>  <Energy>  (761) 
43.793515627307862

>  <compound_id>  (761) 
46701

>  <target_id>  (761) 
1

>  <reference_id>  (761) 
27

>  <inspiration_ids>  (761) 
[27, 44]

>  <energy_score>  (761) 
-22.32908868305401

>  <distance_score>  (761) 
7.247976832486833

>  <path>  (761) 
/opt/xchem-fragalysis-2/maxwin/BulkDock/SCRATCH/511023/C46701-P27/C46701-P27.minimised.mol

>  <scratch_subdir>  (761) 
/opt/xchem-fragalysis-2/maxwin/BulkDock/SCRATCH/511023/C46701-P27

>  <fragmenstein_runtime>  (761) 
26.652869939804077

>  <fragmenstein_outcome>  (761) 
too moved

>  <fragmenstein_mode>  (761) 
expansion

>  <fragmenstein_error>  (761) 


$$$$
C46701-P44
     RDKit          3D

 53 55  0  0  0  0  0  0  0  0999 V2000
   15.9688   -0.1054   19.1659 C   0  0  0  0  0  0  0  0  0  0  0  0
   16.1152   -1.5138   19.7345 C   0  0  0  0  0  0  0  0  0  0  0  0
   14.8781   -2.4006   19.5113 C   0  0  0  0  0  0  0  0  0  0  0  0
   14.7790   -2.8571   18.0329 C   0  0  0  0  0  0  0  0  0  0  0  0
   13.4203   -3.4423   17.6663 C   0  0  0  0  0  0  0  0  0  0  0  0
   14.9306   -3.6054   20.4957 C   0  0  0  0  0  0  0  0  0  0  0  0
   15.4984   -4.6045   20.1587 O   0  0  0  0  0  0  0  0  0  0  0  0
   14.2311   -3.2844   21.7249 N   0  0  0  0  0  0  0  0  0  0  0  0
   13.9174   -4.1106   22.8954 C   0  0  0  0  0  0  0  0  0  0  0  0
   14.0289   -3.4374   24.2877 C   0  0  0  0  0  0  0  0  0  0  0  0
   12.5331   -3.5950   24.4580 C   0  0  0  0  0  0  0  0  0  0  0  0
   12.3967   -4.2818   23.1210 C   0  0  0  0  0  0  0  0  0  0  0  0
   11.9075   -4.2602   25.6766 C   0  0  0  0  0  0  0  0  0  0  0  0
   11.5038   -2.8430   26.1904 C   0  0  0  0  0  0  0  0  0  0  0  0
   10.1225   -2.5868   26.6709 N   0  0  0  0  0  0  0  0  0  0  0  0
    9.2860   -1.4014   26.5758 C   0  0  0  0  0  0  0  0  0  0  0  0
    9.4719   -0.3546   26.0141 O   0  0  0  0  0  0  0  0  0  0  0  0
    7.9869   -1.5030   27.4413 C   0  0  0  0  0  0  0  0  0  0  0  0
    6.9351   -0.4360   27.0653 C   0  0  0  0  0  0  0  0  0  0  0  0
    5.5670   -0.9209   27.5243 C   0  0  0  0  0  0  0  0  0  0  0  0
    5.4488   -2.3473   27.0283 C   0  0  0  0  0  0  0  0  0  0  0  0
    7.0858   -3.0789   27.3530 S   0  0  0  0  0  0  0  0  0  0  0  0
   11.7392   -2.3442   24.7473 C   0  0  0  0  0  0  0  0  0  0  0  0
   15.7887   -0.1103   18.0883 H   0  0  0  0  0  0  0  0  0  0  0  0
   16.8875    0.4630   19.3448 H   0  0  0  0  0  0  0  0  0  0  0  0
   15.1512    0.4284   19.6592 H   0  0  0  0  0  0  0  0  0  0  0  0
   16.9997   -1.9920   19.2957 H   0  0  0  0  0  0  0  0  0  0  0  0
   16.3190   -1.4248   20.8090 H   0  0  0  0  0  0  0  0  0  0  0  0
   13.9991   -1.8029   19.7422 H   0  0  0  0  0  0  0  0  0  0  0  0
   15.5546   -3.6017   17.8167 H   0  0  0  0  0  0  0  0  0  0  0  0
   14.9636   -2.0136   17.3596 H   0  0  0  0  0  0  0  0  0  0  0  0
   13.4356   -3.8164   16.6376 H   0  0  0  0  0  0  0  0  0  0  0  0
   13.1517   -4.2730   18.3250 H   0  0  0  0  0  0  0  0  0  0  0  0
   12.6432   -2.6777   17.7302 H   0  0  0  0  0  0  0  0  0  0  0  0
   13.9418   -2.3128   21.6972 H   0  0  0  0  0  0  0  0  0  0  0  0
   14.4495   -5.0687   22.8508 H   0  0  0  0  0  0  0  0  0  0  0  0
   14.6338   -4.0058   25.0025 H   0  0  0  0  0  0  0  0  0  0  0  0
   14.3996   -2.4071   24.2694 H   0  0  0  0  0  0  0  0  0  0  0  0
   12.0950   -5.3329   23.1719 H   0  0  0  0  0  0  0  0  0  0  0  0
   11.7643   -3.7743   22.3885 H   0  0  0  0  0  0  0  0  0  0  0  0
   12.5933   -4.8094   26.3280 H   0  0  0  0  0  0  0  0  0  0  0  0
   11.0496   -4.9045   25.4514 H   0  0  0  0  0  0  0  0  0  0  0  0
   12.2341   -2.4363   26.9016 H   0  0  0  0  0  0  0  0  0  0  0  0
    9.6079   -3.3174   27.1589 H   0  0  0  0  0  0  0  0  0  0  0  0
    8.2907   -1.3578   28.4848 H   0  0  0  0  0  0  0  0  0  0  0  0
    7.1834    0.5269   27.5259 H   0  0  0  0  0  0  0  0  0  0  0  0
    6.9182   -0.2694   25.9819 H   0  0  0  0  0  0  0  0  0  0  0  0
    4.7646   -0.2935   27.1232 H   0  0  0  0  0  0  0  0  0  0  0  0
    5.4989   -0.8841   28.6187 H   0  0  0  0  0  0  0  0  0  0  0  0
    4.6628   -2.9010   27.5483 H   0  0  0  0  0  0  0  0  0  0  0  0
    5.2536   -2.3805   25.9517 H   0  0  0  0  0  0  0  0  0  0  0  0
   12.2624   -1.3875   24.6761 H   0  0  0  0  0  0  0  0  0  0  0  0
   10.8050   -2.3016   24.1937 H   0  0  0  0  0  0  0  0  0  0  0  0
  1  2  1  0
  2  3  1  0
  3  4  1  0
  4  5  1  0
  3  6  1  0
  6  7  2  0
  6  8  1  0
  8  9  1  0
  9 10  1  0
 10 11  1  0
 11 12  1  0
 11 13  1  0
 13 14  1  0
 14 15  1  0
 15 16  1  0
 16 17  2  0
 16 18  1  0
 18 19  1  0
 19 20  1  0
 20 21  1  0
 21 22  1  0
 14 23  1  0
 12  9  1  0
 22 18  1  0
 23 11  1  0
  1 24  1  0
  1 25  1  0
  1 26  1  0
  2 27  1  0
  2 28  1  0
  3 29  1  0
  4 30  1  0
  4 31  1  0
  5 32  1  0
  5 33  1  0
  5 34  1  0
  8 35  1  0
  9 36  1  0
 10 37  1  0
 10 38  1  0
 12 39  1  0
 12 40  1  0
 13 41  1  0
 13 42  1  0
 14 43  1  0
 15 44  1  0
 18 45  1  0
 19 46  1  0
 19 47  1  0
 20 48  1  0
 20 49  1  0
 21 50  1  0
 21 51  1  0
 23 52  1  0
 23 53  1  0
M  END
>  <Energy>  (762) 
46.342056326915397

>  <compound_id>  (762) 
46701

>  <target_id>  (762) 
1

>  <reference_id>  (762) 
44

>  <inspiration_ids>  (762) 
[27, 44]

>  <energy_score>  (762) 
-19.78054798344607

>  <distance_score>  (762) 
6.954594743928082

>  <path>  (762) 
/opt/xchem-fragalysis-2/maxwin/BulkDock/SCRATCH/511023/C46701-P44/C46701-P44.minimised.mol

>  <scratch_subdir>  (762) 
/opt/xchem-fragalysis-2/maxwin/BulkDock/SCRATCH/511023/C46701-P44

>  <fragmenstein_runtime>  (762) 
19.604889154434204

>  <fragmenstein_outcome>  (762) 
too moved

>  <fragmenstein_mode>  (762) 
expansion

>  <fragmenstein_error>  (762) 


$$$$
C46702-P27
     RDKit          3D

 55 57  0  0  0  0  0  0  0  0999 V2000
   15.9778    0.0515   17.1766 C   0  0  0  0  0  0  0  0  0  0  0  0
   16.0266   -1.4713   17.2630 C   0  0  0  0  0  0  0  0  0  0  0  0
   14.6327   -2.1078   17.1886 C   0  0  0  0  0  0  0  0  0  0  0  0
   14.0483   -2.0416   15.7628 C   0  0  0  0  0  0  0  0  0  0  0  0
   12.5692   -2.4167   15.7006 C   0  0  0  0  0  0  0  0  0  0  0  0
   14.6393   -3.5565   17.7627 C   0  0  0  0  0  0  0  0  0  0  0  0
   14.5686   -4.5061   17.0407 O   0  0  0  0  0  0  0  0  0  0  0  0
   14.6424   -3.4674   19.2005 N   0  0  0  0  0  0  0  0  0  0  0  0
   14.4601   -4.5024   20.2334 C   0  0  0  0  0  0  0  0  0  0  0  0
   13.9050   -3.8562   21.5321 C   0  0  0  0  0  0  0  0  0  0  0  0
   12.4878   -4.0371   20.8944 C   0  0  0  0  0  0  0  0  0  0  0  0
   13.0470   -5.2185   20.1850 C   0  0  0  0  0  0  0  0  0  0  0  0
   11.3959   -3.6735   21.7543 C   0  0  0  0  0  0  0  0  0  0  0  0
    9.8082   -3.1195   20.4228 C   0  0  0  0  0  0  0  0  0  0  0  0
    7.8153   -2.4860   20.9839 N   0  0  0  0  0  0  0  0  0  0  0  0
    6.8305   -0.7304   20.8349 C   0  0  0  0  0  0  0  0  0  0  0  0
    7.4608    0.0862   20.2504 O   0  0  0  0  0  0  0  0  0  0  0  0
    4.9302    0.2301   21.6576 C   0  0  0  0  0  0  0  0  0  0  0  0
    3.1577    1.3366   21.2830 C   0  0  0  0  0  0  0  0  0  0  0  0
    2.4765    2.9780   21.5547 C   0  0  0  0  0  0  0  0  0  0  0  0
    3.1592    3.1907   22.7928 C   0  0  0  0  0  0  0  0  0  0  0  0
    3.6038    1.5300   22.7132 C   0  0  0  0  0  0  0  0  0  0  0  0
   11.9439   -2.9689   20.1139 C   0  0  0  0  0  0  0  0  0  0  0  0
   16.9834    0.4636   17.3105 H   0  0  0  0  0  0  0  0  0  0  0  0
   15.3365    0.4694   17.9590 H   0  0  0  0  0  0  0  0  0  0  0  0
   15.6096    0.3937   16.2058 H   0  0  0  0  0  0  0  0  0  0  0  0
   16.6629   -1.8646   16.4609 H   0  0  0  0  0  0  0  0  0  0  0  0
   16.5215   -1.7419   18.2032 H   0  0  0  0  0  0  0  0  0  0  0  0
   13.9557   -1.5210   17.8257 H   0  0  0  0  0  0  0  0  0  0  0  0
   14.6281   -2.6858   15.0960 H   0  0  0  0  0  0  0  0  0  0  0  0
   14.1399   -1.0255   15.3646 H   0  0  0  0  0  0  0  0  0  0  0  0
   11.9722   -1.7358   16.3151 H   0  0  0  0  0  0  0  0  0  0  0  0
   12.2068   -2.3447   14.6700 H   0  0  0  0  0  0  0  0  0  0  0  0
   12.3889   -3.4377   16.0479 H   0  0  0  0  0  0  0  0  0  0  0  0
   14.8000   -2.5027   19.4719 H   0  0  0  0  0  0  0  0  0  0  0  0
   15.3311   -5.1515   20.3429 H   0  0  0  0  0  0  0  0  0  0  0  0
   14.2514   -2.8431   21.7609 H   0  0  0  0  0  0  0  0  0  0  0  0
   14.0719   -4.4679   22.4292 H   0  0  0  0  0  0  0  0  0  0  0  0
   13.0035   -6.1473   20.7608 H   0  0  0  0  0  0  0  0  0  0  0  0
   12.7027   -5.3654   19.1707 H   0  0  0  0  0  0  0  0  0  0  0  0
   11.6481   -3.0489   22.6415 H   0  0  0  0  0  0  0  0  0  0  0  0
   11.5782   -4.5324   22.4444 H   0  0  0  0  0  0  0  0  0  0  0  0
    9.0971   -4.1501   20.0409 H   0  0  0  0  0  0  0  0  0  0  0  0
    7.1872   -3.1756   21.4047 H   0  0  0  0  0  0  0  0  0  0  0  0
    4.8396   -0.5794   22.3989 H   0  0  0  0  0  0  0  0  0  0  0  0
    2.8950    1.7980   20.3340 H   0  0  0  0  0  0  0  0  0  0  0  0
    2.1830    0.8554   21.2622 H   0  0  0  0  0  0  0  0  0  0  0  0
    2.7209    3.7012   20.7630 H   0  0  0  0  0  0  0  0  0  0  0  0
    1.3856    2.9095   21.6366 H   0  0  0  0  0  0  0  0  0  0  0  0
    3.9090    3.9909   22.7561 H   0  0  0  0  0  0  0  0  0  0  0  0
    2.4896    3.3739   23.6423 H   0  0  0  0  0  0  0  0  0  0  0  0
    2.5258    1.4376   22.9527 H   0  0  0  0  0  0  0  0  0  0  0  0
    3.4066    1.2253   23.8488 H   0  0  0  0  0  0  0  0  0  0  0  0
   12.3115   -3.0809   19.0494 H   0  0  0  0  0  0  0  0  0  0  0  0
   12.7230   -2.2274   20.4293 H   0  0  0  0  0  0  0  0  0  0  0  0
  1  2  1  0
  2  3  1  0
  3  4  1  0
  4  5  1  0
  3  6  1  0
  6  7  2  0
  6  8  1  0
  8  9  1  0
  9 10  1  0
 10 11  1  0
 11 12  1  0
 11 13  1  0
 13 14  1  0
 14 15  1  0
 15 16  1  0
 16 17  2  0
 16 18  1  0
 18 19  1  0
 19 20  1  0
 20 21  1  0
 21 22  1  0
 14 23  1  0
 12  9  1  0
 22 18  1  0
 23 11  1  0
  1 24  1  0
  1 25  1  0
  1 26  1  0
  2 27  1  0
  2 28  1  0
  3 29  1  0
  4 30  1  0
  4 31  1  0
  5 32  1  0
  5 33  1  0
  5 34  1  0
  8 35  1  0
  9 36  1  0
 10 37  1  0
 10 38  1  0
 12 39  1  0
 12 40  1  0
 13 41  1  0
 13 42  1  0
 14 43  1  0
 15 44  1  0
 18 45  1  0
 19 46  1  0
 19 47  1  0
 20 48  1  0
 20 49  1  0
 21 50  1  0
 21 51  1  0
 22 52  1  0
 22 53  1  0
 23 54  1  0
 23 55  1  0
M  END
>  <Energy>  (763) 
1387.4870972177293

>  <compound_id>  (763) 
46702

>  <target_id>  (763) 
1

>  <reference_id>  (763) 
27

>  <inspiration_ids>  (763) 
[27, 44]

>  <energy_score>  (763) 
1335.2367861326377

>  <distance_score>  (763) 
5.617593317633133

>  <path>  (763) 
/opt/xchem-fragalysis-2/maxwin/BulkDock/SCRATCH/511023/C46702-P27/C46702-P27.minimised.mol

>  <scratch_subdir>  (763) 
/opt/xchem-fragalysis-2/maxwin/BulkDock/SCRATCH/511023/C46702-P27

>  <fragmenstein_runtime>  (763) 
31.50029444694519

>  <fragmenstein_outcome>  (763) 
too moved

>  <fragmenstein_mode>  (763) 
expansion

>  <fragmenstein_error>  (763) 


$$$$
C46702-P44
     RDKit          3D

 55 57  0  0  0  0  0  0  0  0999 V2000
   15.8376   -1.8496   19.3702 C   0  0  0  0  0  0  0  0  0  0  0  0
   15.6534   -3.0570   18.4577 C   0  0  0  0  0  0  0  0  0  0  0  0
   14.2016   -3.5655   18.4579 C   0  0  0  0  0  0  0  0  0  0  0  0
   13.8026   -4.0782   17.0555 C   0  0  0  0  0  0  0  0  0  0  0  0
   13.2261   -2.9735   16.1709 C   0  0  0  0  0  0  0  0  0  0  0  0
   13.8548   -4.5069   19.6838 C   0  0  0  0  0  0  0  0  0  0  0  0
   14.6659   -4.8206   20.5050 O   0  0  0  0  0  0  0  0  0  0  0  0
   12.4431   -4.7657   19.6130 N   0  0  0  0  0  0  0  0  0  0  0  0
   11.5119   -5.4187   20.5850 C   0  0  0  0  0  0  0  0  0  0  0  0
   10.7422   -4.4382   21.3573 C   0  0  0  0  0  0  0  0  0  0  0  0
    8.8547   -4.2814   20.2947 C   0  0  0  0  0  0  0  0  0  0  0  0
   10.0486   -5.7365   20.1147 C   0  0  0  0  0  0  0  0  0  0  0  0
    6.9457   -4.6821   19.7592 C   0  0  0  0  0  0  0  0  0  0  0  0
    5.8467   -3.1980   20.5354 C   0  0  0  0  0  0  0  0  0  0  0  0
    4.1864   -3.7740   20.6571 N   0  0  0  0  0  0  0  0  0  0  0  0
    2.7964   -3.3441   21.8897 C   0  0  0  0  0  0  0  0  0  0  0  0
    2.8250   -2.6125   22.8784 O   0  0  0  0  0  0  0  0  0  0  0  0
    1.1323   -4.0858   21.3847 C   0  0  0  0  0  0  0  0  0  0  0  0
    0.0665   -3.8548   22.4330 C   0  0  0  0  0  0  0  0  0  0  0  0
   -1.3310   -4.0057   21.8551 C   0  0  0  0  0  0  0  0  0  0  0  0
   -1.0993   -4.3498   20.4097 C   0  0  0  0  0  0  0  0  0  0  0  0
    0.2744   -3.7597   20.1204 C   0  0  0  0  0  0  0  0  0  0  0  0
    7.3974   -3.7997   21.3377 C   0  0  0  0  0  0  0  0  0  0  0  0
   16.8905   -1.5508   19.3887 H   0  0  0  0  0  0  0  0  0  0  0  0
   15.5320   -2.0757   20.3963 H   0  0  0  0  0  0  0  0  0  0  0  0
   15.2556   -0.9951   19.0153 H   0  0  0  0  0  0  0  0  0  0  0  0
   15.9576   -2.7524   17.4492 H   0  0  0  0  0  0  0  0  0  0  0  0
   16.3374   -3.8561   18.7656 H   0  0  0  0  0  0  0  0  0  0  0  0
   13.5741   -2.6820   18.6446 H   0  0  0  0  0  0  0  0  0  0  0  0
   13.0540   -4.8705   17.1091 H   0  0  0  0  0  0  0  0  0  0  0  0
   14.6767   -4.5053   16.5519 H   0  0  0  0  0  0  0  0  0  0  0  0
   12.3052   -2.5687   16.6025 H   0  0  0  0  0  0  0  0  0  0  0  0
   13.9396   -2.1532   16.0469 H   0  0  0  0  0  0  0  0  0  0  0  0
   12.9880   -3.3711   15.1792 H   0  0  0  0  0  0  0  0  0  0  0  0
   12.0582   -4.2772   18.8182 H   0  0  0  0  0  0  0  0  0  0  0  0
   12.0135   -6.1865   21.1827 H   0  0  0  0  0  0  0  0  0  0  0  0
   11.0391   -4.4919   22.4279 H   0  0  0  0  0  0  0  0  0  0  0  0
   11.3030   -3.4657   21.3483 H   0  0  0  0  0  0  0  0  0  0  0  0
    9.9657   -6.7119   20.6072 H   0  0  0  0  0  0  0  0  0  0  0  0
   10.1368   -5.7648   19.0526 H   0  0  0  0  0  0  0  0  0  0  0  0
    6.6348   -4.8139   18.7155 H   0  0  0  0  0  0  0  0  0  0  0  0
    6.6835   -5.6938   19.8915 H   0  0  0  0  0  0  0  0  0  0  0  0
    5.8551   -2.1399   20.6198 H   0  0  0  0  0  0  0  0  0  0  0  0
    3.8694   -4.4979   19.9719 H   0  0  0  0  0  0  0  0  0  0  0  0
    1.2612   -5.1518   21.2551 H   0  0  0  0  0  0  0  0  0  0  0  0
    0.1971   -4.5601   23.2505 H   0  0  0  0  0  0  0  0  0  0  0  0
    0.1615   -2.8217   22.7201 H   0  0  0  0  0  0  0  0  0  0  0  0
   -1.8874   -3.0659   21.9515 H   0  0  0  0  0  0  0  0  0  0  0  0
   -1.9089   -4.7810   22.3681 H   0  0  0  0  0  0  0  0  0  0  0  0
   -1.0759   -5.4381   20.2769 H   0  0  0  0  0  0  0  0  0  0  0  0
   -1.8747   -3.9472   19.7514 H   0  0  0  0  0  0  0  0  0  0  0  0
    0.6748   -4.2335   19.2171 H   0  0  0  0  0  0  0  0  0  0  0  0
    0.1379   -2.6957   19.9251 H   0  0  0  0  0  0  0  0  0  0  0  0
    7.1756   -4.4481   22.2348 H   0  0  0  0  0  0  0  0  0  0  0  0
    7.5488   -2.8033   21.5294 H   0  0  0  0  0  0  0  0  0  0  0  0
  1  2  1  0
  2  3  1  0
  3  4  1  0
  4  5  1  0
  3  6  1  0
  6  7  2  0
  6  8  1  0
  8  9  1  0
  9 10  1  0
 10 11  1  0
 11 12  1  0
 11 13  1  0
 13 14  1  0
 14 15  1  0
 15 16  1  0
 16 17  2  0
 16 18  1  0
 18 19  1  0
 19 20  1  0
 20 21  1  0
 21 22  1  0
 14 23  1  0
 12  9  1  0
 22 18  1  0
 23 11  1  0
  1 24  1  0
  1 25  1  0
  1 26  1  0
  2 27  1  0
  2 28  1  0
  3 29  1  0
  4 30  1  0
  4 31  1  0
  5 32  1  0
  5 33  1  0
  5 34  1  0
  8 35  1  0
  9 36  1  0
 10 37  1  0
 10 38  1  0
 12 39  1  0
 12 40  1  0
 13 41  1  0
 13 42  1  0
 14 43  1  0
 15 44  1  0
 18 45  1  0
 19 46  1  0
 19 47  1  0
 20 48  1  0
 20 49  1  0
 21 50  1  0
 21 51  1  0
 22 52  1  0
 22 53  1  0
 23 54  1  0
 23 55  1  0
M  END
>  <Energy>  (764) 
659.60601670219614

>  <compound_id>  (764) 
46702

>  <target_id>  (764) 
1

>  <reference_id>  (764) 
44

>  <inspiration_ids>  (764) 
[27, 44]

>  <energy_score>  (764) 
607.3557056171096

>  <distance_score>  (764) 
7.2142759614394

>  <path>  (764) 
/opt/xchem-fragalysis-2/maxwin/BulkDock/SCRATCH/511023/C46702-P44/C46702-P44.minimised.mol

>  <scratch_subdir>  (764) 
/opt/xchem-fragalysis-2/maxwin/BulkDock/SCRATCH/511023/C46702-P44

>  <fragmenstein_runtime>  (764) 
31.612693786621094

>  <fragmenstein_outcome>  (764) 
too moved

>  <fragmenstein_mode>  (764) 
expansion

>  <fragmenstein_error>  (764) 


$$$$
C46703-P27
     RDKit          3D

 54 55  0  0  0  0  0  0  0  0999 V2000
   13.7076    2.4010   16.0036 C   0  0  0  0  0  0  0  0  0  0  0  0
   13.8967    3.3806   17.1527 C   0  0  0  0  0  0  0  0  0  0  0  0
   13.7746    2.7473   18.5541 C   0  0  0  0  0  0  0  0  0  0  0  0
   14.8901    1.7186   18.8164 C   0  0  0  0  0  0  0  0  0  0  0  0
   14.4768    0.2762   18.5322 C   0  0  0  0  0  0  0  0  0  0  0  0
   13.7064    3.8624   19.6551 C   0  0  0  0  0  0  0  0  0  0  0  0
   14.0925    4.9683   19.4048 O   0  0  0  0  0  0  0  0  0  0  0  0
   13.0822    3.3283   20.8460 N   0  0  0  0  0  0  0  0  0  0  0  0
   12.6366    3.9932   22.0855 C   0  0  0  0  0  0  0  0  0  0  0  0
   11.4715    5.0354   21.9233 C   0  0  0  0  0  0  0  0  0  0  0  0
   10.7689    4.2330   22.8862 N   0  0  0  0  0  0  0  0  0  0  0  0
    9.5770    4.4544   23.5221 C   0  0  0  0  0  0  0  0  0  0  0  0
    9.5308    5.0500   24.5987 O   0  0  0  0  0  0  0  0  0  0  0  0
    8.2875    3.9894   22.8341 C   0  0  0  0  0  0  0  0  0  0  0  0
    8.3334    2.4810   22.4827 C   0  0  0  0  0  0  0  0  0  0  0  0
    6.6545    1.6500   21.9082 C   0  0  0  0  0  0  0  0  0  0  0  0
    4.9085    0.6196   22.5714 C   0  0  0  0  0  0  0  0  0  0  0  0
    4.2235    0.0660   24.4905 C   0  0  0  0  0  0  0  0  0  0  0  0
    3.1089    0.9853   25.2341 C   0  0  0  0  0  0  0  0  0  0  0  0
    2.5647    2.0162   24.1997 C   0  0  0  0  0  0  0  0  0  0  0  0
    3.2483    1.8004   22.6245 C   0  0  0  0  0  0  0  0  0  0  0  0
   11.6836    3.1320   22.9863 C   0  0  0  0  0  0  0  0  0  0  0  0
   12.7704    1.8454   16.1069 H   0  0  0  0  0  0  0  0  0  0  0  0
   13.6737    2.9437   15.0531 H   0  0  0  0  0  0  0  0  0  0  0  0
   14.5369    1.6907   15.9426 H   0  0  0  0  0  0  0  0  0  0  0  0
   13.1372    4.1670   17.0523 H   0  0  0  0  0  0  0  0  0  0  0  0
   14.8679    3.8798   17.0457 H   0  0  0  0  0  0  0  0  0  0  0  0
   12.8081    2.2413   18.5688 H   0  0  0  0  0  0  0  0  0  0  0  0
   15.7706    1.9601   18.2085 H   0  0  0  0  0  0  0  0  0  0  0  0
   15.2261    1.7734   19.8590 H   0  0  0  0  0  0  0  0  0  0  0  0
   13.8360   -0.0864   19.3375 H   0  0  0  0  0  0  0  0  0  0  0  0
   15.3621   -0.3677   18.5103 H   0  0  0  0  0  0  0  0  0  0  0  0
   13.9484    0.1614   17.5841 H   0  0  0  0  0  0  0  0  0  0  0  0
   12.9642    2.3311   20.7369 H   0  0  0  0  0  0  0  0  0  0  0  0
   13.4946    4.3951   22.6384 H   0  0  0  0  0  0  0  0  0  0  0  0
   10.9792    5.0915   20.9526 H   0  0  0  0  0  0  0  0  0  0  0  0
   11.7092    6.0408   22.2806 H   0  0  0  0  0  0  0  0  0  0  0  0
    7.4627    4.1912   23.5270 H   0  0  0  0  0  0  0  0  0  0  0  0
    8.1183    4.6178   21.9574 H   0  0  0  0  0  0  0  0  0  0  0  0
    8.7959    1.9574   23.3416 H   0  0  0  0  0  0  0  0  0  0  0  0
    9.1004    2.3743   21.7787 H   0  0  0  0  0  0  0  0  0  0  0  0
    7.2614    1.0690   21.1682 H   0  0  0  0  0  0  0  0  0  0  0  0
    6.4839    2.6865   21.5532 H   0  0  0  0  0  0  0  0  0  0  0  0
    4.8618   -0.2861   21.9924 H   0  0  0  0  0  0  0  0  0  0  0  0
    4.8688    0.1277   25.4157 H   0  0  0  0  0  0  0  0  0  0  0  0
    3.9746   -1.0253   24.5065 H   0  0  0  0  0  0  0  0  0  0  0  0
    2.5518    0.3998   25.9681 H   0  0  0  0  0  0  0  0  0  0  0  0
    3.5728    1.5950   26.0431 H   0  0  0  0  0  0  0  0  0  0  0  0
    2.9037    3.0190   24.5206 H   0  0  0  0  0  0  0  0  0  0  0  0
    1.4903    2.1968   24.2519 H   0  0  0  0  0  0  0  0  0  0  0  0
    2.5795    1.5530   21.7913 H   0  0  0  0  0  0  0  0  0  0  0  0
    3.3450    2.8922   22.4532 H   0  0  0  0  0  0  0  0  0  0  0  0
   11.3172    2.2041   22.5423 H   0  0  0  0  0  0  0  0  0  0  0  0
   12.0494    2.9505   23.9998 H   0  0  0  0  0  0  0  0  0  0  0  0
  1  2  1  0
  2  3  1  0
  3  4  1  0
  4  5  1  0
  3  6  1  0
  6  7  2  0
  6  8  1  0
  8  9  1  0
  9 10  1  0
 10 11  1  0
 11 12  1  0
 12 13  2  0
 12 14  1  0
 14 15  1  0
 15 16  1  0
 16 17  1  0
 17 18  1  0
 18 19  1  0
 19 20  1  0
 20 21  1  0
 11 22  1  0
 22  9  1  0
 21 17  1  0
  1 23  1  0
  1 24  1  0
  1 25  1  0
  2 26  1  0
  2 27  1  0
  3 28  1  0
  4 29  1  0
  4 30  1  0
  5 31  1  0
  5 32  1  0
  5 33  1  0
  8 34  1  0
  9 35  1  0
 10 36  1  0
 10 37  1  0
 14 38  1  0
 14 39  1  0
 15 40  1  0
 15 41  1  0
 16 42  1  0
 16 43  1  0
 17 44  1  0
 18 45  1  0
 18 46  1  0
 19 47  1  0
 19 48  1  0
 20 49  1  0
 20 50  1  0
 21 51  1  0
 21 52  1  0
 22 53  1  0
 22 54  1  0
M  END
>  <Energy>  (765) 
421.42693680549945

>  <compound_id>  (765) 
46703

>  <target_id>  (765) 
1

>  <reference_id>  (765) 
27

>  <inspiration_ids>  (765) 
[27, 44]

>  <energy_score>  (765) 
372.97051775440656

>  <distance_score>  (765) 
8.070388083660433

>  <path>  (765) 
/opt/xchem-fragalysis-2/maxwin/BulkDock/SCRATCH/511023/C46703-P27/C46703-P27.minimised.mol

>  <scratch_subdir>  (765) 
/opt/xchem-fragalysis-2/maxwin/BulkDock/SCRATCH/511023/C46703-P27

>  <fragmenstein_runtime>  (765) 
34.503093242645264

>  <fragmenstein_outcome>  (765) 
too moved

>  <fragmenstein_mode>  (765) 
expansion

>  <fragmenstein_error>  (765) 


$$$$
C46703-P44
     RDKit          3D

 54 55  0  0  0  0  0  0  0  0999 V2000
   15.9757   -0.0981   22.0590 C   0  0  0  0  0  0  0  0  0  0  0  0
   16.0898   -1.6206   22.0374 C   0  0  0  0  0  0  0  0  0  0  0  0
   15.0901   -2.2654   21.0867 C   0  0  0  0  0  0  0  0  0  0  0  0
   15.2980   -1.7259   19.6233 C   0  0  0  0  0  0  0  0  0  0  0  0
   14.5619   -2.4505   18.4932 C   0  0  0  0  0  0  0  0  0  0  0  0
   15.2179   -3.7966   20.9979 C   0  0  0  0  0  0  0  0  0  0  0  0
   16.2576   -4.2698   20.6364 O   0  0  0  0  0  0  0  0  0  0  0  0
   13.9547   -4.4188   21.2934 N   0  0  0  0  0  0  0  0  0  0  0  0
   13.5059   -5.8219   21.1448 C   0  0  0  0  0  0  0  0  0  0  0  0
   12.5517   -5.4458   19.8696 C   0  0  0  0  0  0  0  0  0  0  0  0
   11.5970   -5.4736   20.9315 N   0  0  0  0  0  0  0  0  0  0  0  0
   10.5493   -4.6827   21.1699 C   0  0  0  0  0  0  0  0  0  0  0  0
   10.9392   -3.6999   21.8907 O   0  0  0  0  0  0  0  0  0  0  0  0
    8.5054   -4.3814   20.6229 C   0  0  0  0  0  0  0  0  0  0  0  0
    7.0990   -3.3847   21.6063 C   0  0  0  0  0  0  0  0  0  0  0  0
    5.9996   -3.1993   23.2649 C   0  0  0  0  0  0  0  0  0  0  0  0
    5.6776   -4.0302   24.8737 C   0  0  0  0  0  0  0  0  0  0  0  0
    4.2346   -4.2923   25.4084 C   0  0  0  0  0  0  0  0  0  0  0  0
    4.1352   -3.9179   26.8796 C   0  0  0  0  0  0  0  0  0  0  0  0
    5.0035   -2.6987   26.9408 C   0  0  0  0  0  0  0  0  0  0  0  0
    6.2008   -3.1448   26.1165 C   0  0  0  0  0  0  0  0  0  0  0  0
   12.0948   -6.5677   21.6548 C   0  0  0  0  0  0  0  0  0  0  0  0
   14.9433    0.2197   22.2355 H   0  0  0  0  0  0  0  0  0  0  0  0
   16.5956    0.3075   22.8655 H   0  0  0  0  0  0  0  0  0  0  0  0
   16.3275    0.3491   21.1249 H   0  0  0  0  0  0  0  0  0  0  0  0
   15.9160   -2.0058   23.0497 H   0  0  0  0  0  0  0  0  0  0  0  0
   17.1165   -1.9028   21.7748 H   0  0  0  0  0  0  0  0  0  0  0  0
   14.0807   -1.9766   21.4002 H   0  0  0  0  0  0  0  0  0  0  0  0
   15.0073   -0.6710   19.5971 H   0  0  0  0  0  0  0  0  0  0  0  0
   16.3696   -1.7527   19.3841 H   0  0  0  0  0  0  0  0  0  0  0  0
   14.9294   -3.4723   18.3610 H   0  0  0  0  0  0  0  0  0  0  0  0
   14.7287   -1.9236   17.5476 H   0  0  0  0  0  0  0  0  0  0  0  0
   13.4882   -2.4903   18.6666 H   0  0  0  0  0  0  0  0  0  0  0  0
   13.2647   -3.6932   21.4940 H   0  0  0  0  0  0  0  0  0  0  0  0
   14.3400   -6.5036   20.9559 H   0  0  0  0  0  0  0  0  0  0  0  0
   12.6704   -4.4388   19.4459 H   0  0  0  0  0  0  0  0  0  0  0  0
   13.0105   -6.0186   19.0955 H   0  0  0  0  0  0  0  0  0  0  0  0
    7.6043   -4.7059   20.0523 H   0  0  0  0  0  0  0  0  0  0  0  0
    8.7344   -3.8241   19.8544 H   0  0  0  0  0  0  0  0  0  0  0  0
    7.4883   -2.4728   21.3531 H   0  0  0  0  0  0  0  0  0  0  0  0
    6.2434   -3.0867   20.9174 H   0  0  0  0  0  0  0  0  0  0  0  0
    6.2487   -2.3996   23.9240 H   0  0  0  0  0  0  0  0  0  0  0  0
    5.1938   -2.4595   22.9603 H   0  0  0  0  0  0  0  0  0  0  0  0
    6.2125   -4.9903   24.8370 H   0  0  0  0  0  0  0  0  0  0  0  0
    3.5240   -3.6624   24.8927 H   0  0  0  0  0  0  0  0  0  0  0  0
    3.9597   -5.3450   25.2980 H   0  0  0  0  0  0  0  0  0  0  0  0
    3.1068   -3.7219   27.1948 H   0  0  0  0  0  0  0  0  0  0  0  0
    4.5391   -4.7208   27.5075 H   0  0  0  0  0  0  0  0  0  0  0  0
    5.2809   -2.4298   27.9638 H   0  0  0  0  0  0  0  0  0  0  0  0
    4.5139   -1.8368   26.4734 H   0  0  0  0  0  0  0  0  0  0  0  0
    6.7905   -2.2594   25.8613 H   0  0  0  0  0  0  0  0  0  0  0  0
    6.8440   -3.7884   26.7323 H   0  0  0  0  0  0  0  0  0  0  0  0
   11.8685   -7.5688   21.3037 H   0  0  0  0  0  0  0  0  0  0  0  0
   12.0176   -6.5350   22.7433 H   0  0  0  0  0  0  0  0  0  0  0  0
  1  2  1  0
  2  3  1  0
  3  4  1  0
  4  5  1  0
  3  6  1  0
  6  7  2  0
  6  8  1  0
  8  9  1  0
  9 10  1  0
 10 11  1  0
 11 12  1  0
 12 13  2  0
 12 14  1  0
 14 15  1  0
 15 16  1  0
 16 17  1  0
 17 18  1  0
 18 19  1  0
 19 20  1  0
 20 21  1  0
 11 22  1  0
 22  9  1  0
 21 17  1  0
  1 23  1  0
  1 24  1  0
  1 25  1  0
  2 26  1  0
  2 27  1  0
  3 28  1  0
  4 29  1  0
  4 30  1  0
  5 31  1  0
  5 32  1  0
  5 33  1  0
  8 34  1  0
  9 35  1  0
 10 36  1  0
 10 37  1  0
 14 38  1  0
 14 39  1  0
 15 40  1  0
 15 41  1  0
 16 42  1  0
 16 43  1  0
 17 44  1  0
 18 45  1  0
 18 46  1  0
 19 47  1  0
 19 48  1  0
 20 49  1  0
 20 50  1  0
 21 51  1  0
 21 52  1  0
 22 53  1  0
 22 54  1  0
M  END
>  <Energy>  (766) 
477.76284113869247

>  <compound_id>  (766) 
46703

>  <target_id>  (766) 
1

>  <reference_id>  (766) 
44

>  <inspiration_ids>  (766) 
[27, 44]

>  <energy_score>  (766) 
429.30642208760037

>  <distance_score>  (766) 
6.91561531876123

>  <path>  (766) 
/opt/xchem-fragalysis-2/maxwin/BulkDock/SCRATCH/511023/C46703-P44/C46703-P44.minimised.mol

>  <scratch_subdir>  (766) 
/opt/xchem-fragalysis-2/maxwin/BulkDock/SCRATCH/511023/C46703-P44

>  <fragmenstein_runtime>  (766) 
20.293612241744995

>  <fragmenstein_outcome>  (766) 
too moved

>  <fragmenstein_mode>  (766) 
expansion

>  <fragmenstein_error>  (766) 


$$$$
C10646-P27
     RDKit          3D

 59 60  0  0  0  0  0  0  0  0999 V2000
   14.3923   -0.1575   20.5153 C   0  0  0  0  0  0  0  0  0  0  0  0
   15.4513   -1.0483   21.1266 C   0  0  0  0  0  0  0  0  0  0  0  0
   15.1332   -2.5335   21.4122 C   0  0  0  0  0  0  0  0  0  0  0  0
   15.1061   -3.4063   20.1186 C   0  0  0  0  0  0  0  0  0  0  0  0
   13.9024   -3.2878   19.2018 C   0  0  0  0  0  0  0  0  0  0  0  0
   14.0859   -3.0006   22.5122 C   0  0  0  0  0  0  0  0  0  0  0  0
   13.5078   -4.0351   22.3185 O   0  0  0  0  0  0  0  0  0  0  0  0
   14.0713   -2.1123   23.6526 N   0  0  0  0  0  0  0  0  0  0  0  0
   13.4304   -2.2403   24.9584 C   0  0  0  0  0  0  0  0  0  0  0  0
   12.1104   -2.9691   25.0423 C   0  0  0  0  0  0  0  0  0  0  0  0
   11.5948   -2.9556   26.5212 C   0  0  0  0  0  0  0  0  0  0  0  0
   11.0868   -1.6878   27.2556 N   0  0  0  0  0  0  0  0  0  0  0  0
    9.8418   -1.2354   26.6706 C   0  0  0  0  0  0  0  0  0  0  0  0
    9.6371   -0.4548   25.7785 O   0  0  0  0  0  0  0  0  0  0  0  0
    8.6392   -1.8640   27.4881 C   0  0  0  0  0  0  0  0  0  0  0  0
    7.2717   -1.1203   27.3414 C   0  0  0  0  0  0  0  0  0  0  0  0
    6.2094   -1.3230   28.4515 C   0  0  0  0  0  0  0  0  0  0  0  0
    5.0456   -0.4229   28.2900 N   0  0  0  0  0  0  0  0  0  0  0  0
    4.1700   -0.3935   29.4619 C   0  0  0  0  0  0  0  0  0  0  0  0
    2.9425    0.3444   28.9459 C   0  0  0  0  0  0  0  0  0  0  0  0
    2.8694   -0.0215   27.4696 C   0  0  0  0  0  0  0  0  0  0  0  0
    4.1529   -0.7994   27.1834 C   0  0  0  0  0  0  0  0  0  0  0  0
   12.5133   -1.2410   27.0119 C   0  0  0  0  0  0  0  0  0  0  0  0
   13.1083   -0.9219   25.6215 C   0  0  0  0  0  0  0  0  0  0  0  0
   14.0790   -0.4971   19.5308 H   0  0  0  0  0  0  0  0  0  0  0  0
   14.7966    0.8527   20.3839 H   0  0  0  0  0  0  0  0  0  0  0  0
   13.5335   -0.0668   21.1774 H   0  0  0  0  0  0  0  0  0  0  0  0
   16.3270   -1.0147   20.4637 H   0  0  0  0  0  0  0  0  0  0  0  0
   15.7915   -0.5667   22.0509 H   0  0  0  0  0  0  0  0  0  0  0  0
   16.0655   -2.8749   21.8984 H   0  0  0  0  0  0  0  0  0  0  0  0
   15.1813   -4.4591   20.4230 H   0  0  0  0  0  0  0  0  0  0  0  0
   16.0119   -3.2076   19.5318 H   0  0  0  0  0  0  0  0  0  0  0  0
   12.9801   -3.3211   19.7797 H   0  0  0  0  0  0  0  0  0  0  0  0
   13.9371   -2.3754   18.6057 H   0  0  0  0  0  0  0  0  0  0  0  0
   13.8868   -4.1255   18.4962 H   0  0  0  0  0  0  0  0  0  0  0  0
   14.7433   -1.3754   23.5038 H   0  0  0  0  0  0  0  0  0  0  0  0
   14.1681   -2.7808   25.5659 H   0  0  0  0  0  0  0  0  0  0  0  0
   11.3940   -2.4773   24.3922 H   0  0  0  0  0  0  0  0  0  0  0  0
   12.2201   -4.0059   24.7068 H   0  0  0  0  0  0  0  0  0  0  0  0
   10.7056   -3.6019   26.5059 H   0  0  0  0  0  0  0  0  0  0  0  0
   12.2767   -3.5195   27.1814 H   0  0  0  0  0  0  0  0  0  0  0  0
    8.9253   -1.8570   28.5467 H   0  0  0  0  0  0  0  0  0  0  0  0
    8.5205   -2.9063   27.1741 H   0  0  0  0  0  0  0  0  0  0  0  0
    7.4751   -0.0452   27.2658 H   0  0  0  0  0  0  0  0  0  0  0  0
    6.8278   -1.4567   26.4022 H   0  0  0  0  0  0  0  0  0  0  0  0
    6.6932   -1.0945   29.4093 H   0  0  0  0  0  0  0  0  0  0  0  0
    5.8995   -2.3744   28.4912 H   0  0  0  0  0  0  0  0  0  0  0  0
    4.6268    0.1331   30.3057 H   0  0  0  0  0  0  0  0  0  0  0  0
    3.8955   -1.4057   29.7853 H   0  0  0  0  0  0  0  0  0  0  0  0
    3.0718    1.4281   29.0535 H   0  0  0  0  0  0  0  0  0  0  0  0
    2.0354    0.0575   29.4865 H   0  0  0  0  0  0  0  0  0  0  0  0
    2.8120    0.8869   26.8599 H   0  0  0  0  0  0  0  0  0  0  0  0
    1.9873   -0.6339   27.2580 H   0  0  0  0  0  0  0  0  0  0  0  0
    3.9403   -1.8760   27.1858 H   0  0  0  0  0  0  0  0  0  0  0  0
    4.5635   -0.5277   26.2098 H   0  0  0  0  0  0  0  0  0  0  0  0
   13.2205   -1.7884   27.6587 H   0  0  0  0  0  0  0  0  0  0  0  0
   12.4861   -0.2511   27.4947 H   0  0  0  0  0  0  0  0  0  0  0  0
   12.4106   -0.3223   25.0244 H   0  0  0  0  0  0  0  0  0  0  0  0
   14.0234   -0.3294   25.7403 H   0  0  0  0  0  0  0  0  0  0  0  0
  1  2  1  0
  2  3  1  0
  3  4  1  0
  4  5  1  0
  3  6  1  0
  6  7  2  0
  6  8  1  0
  8  9  1  0
  9 10  1  0
 10 11  1  0
 11 12  1  0
 12 13  1  0
 13 14  2  0
 13 15  1  0
 15 16  1  0
 16 17  1  0
 17 18  1  0
 18 19  1  0
 19 20  1  0
 20 21  1  0
 21 22  1  0
 12 23  1  0
 23 24  1  0
 24  9  1  0
 22 18  1  0
  1 25  1  0
  1 26  1  0
  1 27  1  0
  2 28  1  0
  2 29  1  0
  3 30  1  0
  4 31  1  0
  4 32  1  0
  5 33  1  0
  5 34  1  0
  5 35  1  0
  8 36  1  0
  9 37  1  0
 10 38  1  0
 10 39  1  0
 11 40  1  0
 11 41  1  0
 15 42  1  0
 15 43  1  0
 16 44  1  0
 16 45  1  0
 17 46  1  0
 17 47  1  0
 19 48  1  0
 19 49  1  0
 20 50  1  0
 20 51  1  0
 21 52  1  0
 21 53  1  0
 22 54  1  0
 22 55  1  0
 23 56  1  0
 23 57  1  0
 24 58  1  0
 24 59  1  0
M  END
>  <Energy>  (767) 
71.457360301223616

>  <compound_id>  (767) 
10646

>  <target_id>  (767) 
1

>  <reference_id>  (767) 
27

>  <inspiration_ids>  (767) 
[27, 44]

>  <energy_score>  (767) 
60.526000633058686

>  <distance_score>  (767) 
6.733470511464747

>  <path>  (767) 
/opt/xchem-fragalysis-2/maxwin/BulkDock/SCRATCH/511023/C10646-P27/C10646-P27.minimised.mol

>  <scratch_subdir>  (767) 
/opt/xchem-fragalysis-2/maxwin/BulkDock/SCRATCH/511023/C10646-P27

>  <fragmenstein_runtime>  (767) 
17.371464252471924

>  <fragmenstein_outcome>  (767) 
too moved

>  <fragmenstein_mode>  (767) 
expansion

>  <fragmenstein_error>  (767) 


$$$$
C10646-P44
     RDKit          3D

 59 60  0  0  0  0  0  0  0  0999 V2000
   15.3271   -0.7820   20.4316 C   0  0  0  0  0  0  0  0  0  0  0  0
   14.5009   -0.9229   21.7057 C   0  0  0  0  0  0  0  0  0  0  0  0
   14.8341   -2.1698   22.5412 C   0  0  0  0  0  0  0  0  0  0  0  0
   14.5883   -3.5422   21.8769 C   0  0  0  0  0  0  0  0  0  0  0  0
   13.3488   -3.7267   21.0231 C   0  0  0  0  0  0  0  0  0  0  0  0
   14.3672   -2.1045   24.0428 C   0  0  0  0  0  0  0  0  0  0  0  0
   15.2265   -2.2769   24.8628 O   0  0  0  0  0  0  0  0  0  0  0  0
   12.9660   -1.8358   24.1978 N   0  0  0  0  0  0  0  0  0  0  0  0
   12.1646   -1.5924   25.3916 C   0  0  0  0  0  0  0  0  0  0  0  0
   10.9836   -2.5264   25.5613 C   0  0  0  0  0  0  0  0  0  0  0  0
   10.0328   -2.0174   26.6922 C   0  0  0  0  0  0  0  0  0  0  0  0
    9.2306   -0.7177   26.4795 N   0  0  0  0  0  0  0  0  0  0  0  0
    8.0910   -0.6798   27.3802 C   0  0  0  0  0  0  0  0  0  0  0  0
    7.9873   -0.2264   28.4925 O   0  0  0  0  0  0  0  0  0  0  0  0
    6.8347   -1.2933   26.7361 C   0  0  0  0  0  0  0  0  0  0  0  0
    5.6187   -0.3319   26.6323 C   0  0  0  0  0  0  0  0  0  0  0  0
    4.4991   -0.5622   27.6759 C   0  0  0  0  0  0  0  0  0  0  0  0
    3.2646    0.1751   27.3457 N   0  0  0  0  0  0  0  0  0  0  0  0
    3.3806    1.6270   27.5030 C   0  0  0  0  0  0  0  0  0  0  0  0
    1.9330    2.1054   27.4902 C   0  0  0  0  0  0  0  0  0  0  0  0
    1.1125    0.9062   27.9474 C   0  0  0  0  0  0  0  0  0  0  0  0
    2.1316   -0.1985   28.1975 C   0  0  0  0  0  0  0  0  0  0  0  0
   10.6058   -0.1041   26.6073 C   0  0  0  0  0  0  0  0  0  0  0  0
   11.5819   -0.1958   25.4260 C   0  0  0  0  0  0  0  0  0  0  0  0
   15.0997    0.1681   19.9389 H   0  0  0  0  0  0  0  0  0  0  0  0
   15.1213   -1.5898   19.7246 H   0  0  0  0  0  0  0  0  0  0  0  0
   16.3977   -0.7906   20.6596 H   0  0  0  0  0  0  0  0  0  0  0  0
   14.6632   -0.0296   22.3220 H   0  0  0  0  0  0  0  0  0  0  0  0
   13.4503   -0.9161   21.4400 H   0  0  0  0  0  0  0  0  0  0  0  0
   15.9316   -2.1262   22.6516 H   0  0  0  0  0  0  0  0  0  0  0  0
   14.5779   -4.3110   22.6603 H   0  0  0  0  0  0  0  0  0  0  0  0
   15.4549   -3.7772   21.2445 H   0  0  0  0  0  0  0  0  0  0  0  0
   12.4524   -3.4094   21.5584 H   0  0  0  0  0  0  0  0  0  0  0  0
   13.4463   -3.1919   20.0777 H   0  0  0  0  0  0  0  0  0  0  0  0
   13.2257   -4.7863   20.7727 H   0  0  0  0  0  0  0  0  0  0  0  0
   12.5569   -1.6627   23.2786 H   0  0  0  0  0  0  0  0  0  0  0  0
   12.8372   -1.7169   26.2500 H   0  0  0  0  0  0  0  0  0  0  0  0
   10.4357   -2.6090   24.6245 H   0  0  0  0  0  0  0  0  0  0  0  0
   11.3358   -3.5357   25.8053 H   0  0  0  0  0  0  0  0  0  0  0  0
    9.2482   -2.7896   26.7357 H   0  0  0  0  0  0  0  0  0  0  0  0
   10.4731   -2.0974   27.7016 H   0  0  0  0  0  0  0  0  0  0  0  0
    7.0996   -1.6216   25.7323 H   0  0  0  0  0  0  0  0  0  0  0  0
    6.5759   -2.1960   27.3009 H   0  0  0  0  0  0  0  0  0  0  0  0
    5.1769   -0.4757   25.6372 H   0  0  0  0  0  0  0  0  0  0  0  0
    5.9645    0.7076   26.6754 H   0  0  0  0  0  0  0  0  0  0  0  0
    4.8637   -0.3049   28.6779 H   0  0  0  0  0  0  0  0  0  0  0  0
    4.2656   -1.6343   27.6820 H   0  0  0  0  0  0  0  0  0  0  0  0
    3.9544    2.0888   26.6937 H   0  0  0  0  0  0  0  0  0  0  0  0
    3.8491    1.8915   28.4594 H   0  0  0  0  0  0  0  0  0  0  0  0
    1.6296    2.4004   26.4791 H   0  0  0  0  0  0  0  0  0  0  0  0
    1.7910    2.9688   28.1480 H   0  0  0  0  0  0  0  0  0  0  0  0
    0.4039    0.6161   27.1640 H   0  0  0  0  0  0  0  0  0  0  0  0
    0.5369    1.1304   28.8513 H   0  0  0  0  0  0  0  0  0  0  0  0
    2.4153   -0.2063   29.2578 H   0  0  0  0  0  0  0  0  0  0  0  0
    1.7287   -1.1827   27.9392 H   0  0  0  0  0  0  0  0  0  0  0  0
   11.0755   -0.2343   27.5977 H   0  0  0  0  0  0  0  0  0  0  0  0
   10.3439    0.9654   26.6531 H   0  0  0  0  0  0  0  0  0  0  0  0
   11.0545    0.0578   24.5016 H   0  0  0  0  0  0  0  0  0  0  0  0
   12.3860    0.5402   25.5442 H   0  0  0  0  0  0  0  0  0  0  0  0
  1  2  1  0
  2  3  1  0
  3  4  1  0
  4  5  1  0
  3  6  1  0
  6  7  2  0
  6  8  1  0
  8  9  1  0
  9 10  1  0
 10 11  1  0
 11 12  1  0
 12 13  1  0
 13 14  2  0
 13 15  1  0
 15 16  1  0
 16 17  1  0
 17 18  1  0
 18 19  1  0
 19 20  1  0
 20 21  1  0
 21 22  1  0
 12 23  1  0
 23 24  1  0
 24  9  1  0
 22 18  1  0
  1 25  1  0
  1 26  1  0
  1 27  1  0
  2 28  1  0
  2 29  1  0
  3 30  1  0
  4 31  1  0
  4 32  1  0
  5 33  1  0
  5 34  1  0
  5 35  1  0
  8 36  1  0
  9 37  1  0
 10 38  1  0
 10 39  1  0
 11 40  1  0
 11 41  1  0
 15 42  1  0
 15 43  1  0
 16 44  1  0
 16 45  1  0
 17 46  1  0
 17 47  1  0
 19 48  1  0
 19 49  1  0
 20 50  1  0
 20 51  1  0
 21 52  1  0
 21 53  1  0
 22 54  1  0
 22 55  1  0
 23 56  1  0
 23 57  1  0
 24 58  1  0
 24 59  1  0
M  END
>  <Energy>  (768) 
56.337791353745516

>  <compound_id>  (768) 
10646

>  <target_id>  (768) 
1

>  <reference_id>  (768) 
44

>  <inspiration_ids>  (768) 
[27, 44]

>  <energy_score>  (768) 
45.40643168557986

>  <distance_score>  (768) 
6.854512729975467

>  <path>  (768) 
/opt/xchem-fragalysis-2/maxwin/BulkDock/SCRATCH/511023/C10646-P44/C10646-P44.minimised.mol

>  <scratch_subdir>  (768) 
/opt/xchem-fragalysis-2/maxwin/BulkDock/SCRATCH/511023/C10646-P44

>  <fragmenstein_runtime>  (768) 
18.32643961906433

>  <fragmenstein_outcome>  (768) 
too moved

>  <fragmenstein_mode>  (768) 
expansion

>  <fragmenstein_error>  (768) 


$$$$
C46704-P27
     RDKit          3D

 57 58  0  0  0  0  0  0  0  0999 V2000
   14.2535    1.8122   18.6192 C   0  0  0  0  0  0  0  0  0  0  0  0
   14.1313    2.1801   20.0920 C   0  0  0  0  0  0  0  0  0  0  0  0
   14.0962    1.0064   21.0988 C   0  0  0  0  0  0  0  0  0  0  0  0
   15.3001    0.0582   20.9473 C   0  0  0  0  0  0  0  0  0  0  0  0
   15.0232   -1.1183   20.0021 C   0  0  0  0  0  0  0  0  0  0  0  0
   13.9117    1.6063   22.5333 C   0  0  0  0  0  0  0  0  0  0  0  0
   14.8758    1.8142   23.2130 O   0  0  0  0  0  0  0  0  0  0  0  0
   12.5076    1.9064   22.7630 N   0  0  0  0  0  0  0  0  0  0  0  0
   11.8290    2.4620   23.9247 C   0  0  0  0  0  0  0  0  0  0  0  0
   12.0239    3.8726   24.0904 C   0  0  0  0  0  0  0  0  0  0  0  0
   10.4858    3.8710   23.7029 C   0  0  0  0  0  0  0  0  0  0  0  0
    9.3319    3.0772   24.8512 N   0  0  0  0  0  0  0  0  0  0  0  0
    8.8834    4.0679   25.7200 C   0  0  0  0  0  0  0  0  0  0  0  0
    9.4150    4.3442   26.7880 O   0  0  0  0  0  0  0  0  0  0  0  0
    7.5638    4.7441   25.2905 C   0  0  0  0  0  0  0  0  0  0  0  0
    6.4095    4.5232   26.3094 C   0  0  0  0  0  0  0  0  0  0  0  0
    4.9920    4.8177   25.7391 C   0  0  0  0  0  0  0  0  0  0  0  0
    3.8533    4.0548   26.4449 C   0  0  0  0  0  0  0  0  0  0  0  0
    2.5103    4.1706   25.7171 C   0  0  0  0  0  0  0  0  0  0  0  0
    1.4831    3.6893   26.7381 C   0  0  0  0  0  0  0  0  0  0  0  0
    2.1152    3.9274   28.1081 C   0  0  0  0  0  0  0  0  0  0  0  0
    3.4849    4.5533   27.8385 C   0  0  0  0  0  0  0  0  0  0  0  0
   10.2868    2.9865   23.6952 C   0  0  0  0  0  0  0  0  0  0  0  0
   14.1353    2.7093   18.0023 H   0  0  0  0  0  0  0  0  0  0  0  0
   15.2393    1.3945   18.3954 H   0  0  0  0  0  0  0  0  0  0  0  0
   13.4890    1.0946   18.3137 H   0  0  0  0  0  0  0  0  0  0  0  0
   14.9668    2.8444   20.3498 H   0  0  0  0  0  0  0  0  0  0  0  0
   13.2291    2.7902   20.2194 H   0  0  0  0  0  0  0  0  0  0  0  0
   13.2309    0.3735   20.9336 H   0  0  0  0  0  0  0  0  0  0  0  0
   15.5635   -0.3643   21.9247 H   0  0  0  0  0  0  0  0  0  0  0  0
   16.1835    0.6083   20.6027 H   0  0  0  0  0  0  0  0  0  0  0  0
   14.2212   -1.7493   20.3970 H   0  0  0  0  0  0  0  0  0  0  0  0
   14.7449   -0.7964   18.9977 H   0  0  0  0  0  0  0  0  0  0  0  0
   15.9203   -1.7402   19.9164 H   0  0  0  0  0  0  0  0  0  0  0  0
   11.9587    1.5128   22.0115 H   0  0  0  0  0  0  0  0  0  0  0  0
   11.9891    1.8558   24.8223 H   0  0  0  0  0  0  0  0  0  0  0  0
   12.2033    4.2028   25.1178 H   0  0  0  0  0  0  0  0  0  0  0  0
   12.6432    4.3893   23.3530 H   0  0  0  0  0  0  0  0  0  0  0  0
   10.3533    4.9174   24.2032 H   0  0  0  0  0  0  0  0  0  0  0  0
   10.0941    4.4985   22.7322 H   0  0  0  0  0  0  0  0  0  0  0  0
    7.7591    5.8162   25.1754 H   0  0  0  0  0  0  0  0  0  0  0  0
    7.2762    4.3671   24.3037 H   0  0  0  0  0  0  0  0  0  0  0  0
    6.5800    5.1616   27.1853 H   0  0  0  0  0  0  0  0  0  0  0  0
    6.4498    3.4962   26.6873 H   0  0  0  0  0  0  0  0  0  0  0  0
    4.9770    4.5500   24.6770 H   0  0  0  0  0  0  0  0  0  0  0  0
    4.8103    5.8986   25.7824 H   0  0  0  0  0  0  0  0  0  0  0  0
    4.1226    2.9935   26.5180 H   0  0  0  0  0  0  0  0  0  0  0  0
    2.4805    3.5752   24.7992 H   0  0  0  0  0  0  0  0  0  0  0  0
    2.3062    5.2142   25.4474 H   0  0  0  0  0  0  0  0  0  0  0  0
    1.2804    2.6207   26.6018 H   0  0  0  0  0  0  0  0  0  0  0  0
    0.5327    4.2212   26.6278 H   0  0  0  0  0  0  0  0  0  0  0  0
    2.2303    2.9730   28.6349 H   0  0  0  0  0  0  0  0  0  0  0  0
    1.4976    4.5773   28.7363 H   0  0  0  0  0  0  0  0  0  0  0  0
    3.4030    5.6470   27.8508 H   0  0  0  0  0  0  0  0  0  0  0  0
    4.2209    4.2627   28.5943 H   0  0  0  0  0  0  0  0  0  0  0  0
    9.7403    2.6663   22.6292 H   0  0  0  0  0  0  0  0  0  0  0  0
   10.0535    1.8468   23.7823 H   0  0  0  0  0  0  0  0  0  0  0  0
  1  2  1  0
  2  3  1  0
  3  4  1  0
  4  5  1  0
  3  6  1  0
  6  7  2  0
  6  8  1  0
  8  9  1  0
  9 10  1  0
 10 11  1  0
 11 12  1  0
 12 13  1  0
 13 14  2  0
 13 15  1  0
 15 16  1  0
 16 17  1  0
 17 18  1  0
 18 19  1  0
 19 20  1  0
 20 21  1  0
 21 22  1  0
 12 23  1  0
 23  9  1  0
 22 18  1  0
  1 24  1  0
  1 25  1  0
  1 26  1  0
  2 27  1  0
  2 28  1  0
  3 29  1  0
  4 30  1  0
  4 31  1  0
  5 32  1  0
  5 33  1  0
  5 34  1  0
  8 35  1  0
  9 36  1  0
 10 37  1  0
 10 38  1  0
 11 39  1  0
 11 40  1  0
 15 41  1  0
 15 42  1  0
 16 43  1  0
 16 44  1  0
 17 45  1  0
 17 46  1  0
 18 47  1  0
 19 48  1  0
 19 49  1  0
 20 50  1  0
 20 51  1  0
 21 52  1  0
 21 53  1  0
 22 54  1  0
 22 55  1  0
 23 56  1  0
 23 57  1  0
M  END
>  <Energy>  (769) 
547.13544249402628

>  <compound_id>  (769) 
46704

>  <target_id>  (769) 
1

>  <reference_id>  (769) 
27

>  <inspiration_ids>  (769) 
[27, 44]

>  <energy_score>  (769) 
516.0627440068416

>  <distance_score>  (769) 
7.708455171529717

>  <path>  (769) 
/opt/xchem-fragalysis-2/maxwin/BulkDock/SCRATCH/511023/C46704-P27/C46704-P27.minimised.mol

>  <scratch_subdir>  (769) 
/opt/xchem-fragalysis-2/maxwin/BulkDock/SCRATCH/511023/C46704-P27

>  <fragmenstein_runtime>  (769) 
25.415478229522705

>  <fragmenstein_outcome>  (769) 
too moved

>  <fragmenstein_mode>  (769) 
expansion

>  <fragmenstein_error>  (769) 


$$$$
C46704-P44
     RDKit          3D

 57 58  0  0  0  0  0  0  0  0999 V2000
   16.6236   -0.9865   21.6098 C   0  0  0  0  0  0  0  0  0  0  0  0
   16.7926   -2.0135   20.4986 C   0  0  0  0  0  0  0  0  0  0  0  0
   15.9649   -3.3110   20.6967 C   0  0  0  0  0  0  0  0  0  0  0  0
   16.2825   -4.2813   19.5130 C   0  0  0  0  0  0  0  0  0  0  0  0
   15.7237   -3.8773   18.1401 C   0  0  0  0  0  0  0  0  0  0  0  0
   14.4671   -3.0286   20.6378 C   0  0  0  0  0  0  0  0  0  0  0  0
   14.1405   -1.9289   20.2949 O   0  0  0  0  0  0  0  0  0  0  0  0
   13.6755   -4.1994   20.9217 N   0  0  0  0  0  0  0  0  0  0  0  0
   12.2763   -4.4330   20.7859 C   0  0  0  0  0  0  0  0  0  0  0  0
   11.7508   -5.7653   20.4353 C   0  0  0  0  0  0  0  0  0  0  0  0
   10.0513   -5.5712   19.7442 C   0  0  0  0  0  0  0  0  0  0  0  0
    9.4792   -4.7079   20.8269 N   0  0  0  0  0  0  0  0  0  0  0  0
    7.6333   -4.2811   21.2864 C   0  0  0  0  0  0  0  0  0  0  0  0
    7.1868   -5.1878   22.1450 O   0  0  0  0  0  0  0  0  0  0  0  0
    6.2496   -2.8619   21.1240 C   0  0  0  0  0  0  0  0  0  0  0  0
    5.1150   -2.2486   22.7993 C   0  0  0  0  0  0  0  0  0  0  0  0
    4.8502   -1.0600   24.0550 C   0  0  0  0  0  0  0  0  0  0  0  0
    5.3409   -1.2567   25.5375 C   0  0  0  0  0  0  0  0  0  0  0  0
    5.0548    0.0167   26.3667 C   0  0  0  0  0  0  0  0  0  0  0  0
    3.6871   -0.2136   26.9848 C   0  0  0  0  0  0  0  0  0  0  0  0
    3.7235   -1.6837   27.3628 C   0  0  0  0  0  0  0  0  0  0  0  0
    4.6158   -2.3667   26.3190 C   0  0  0  0  0  0  0  0  0  0  0  0
   11.1126   -4.1390   21.6718 C   0  0  0  0  0  0  0  0  0  0  0  0
   17.3134   -0.1507   21.4521 H   0  0  0  0  0  0  0  0  0  0  0  0
   16.8533   -1.4305   22.5840 H   0  0  0  0  0  0  0  0  0  0  0  0
   15.6137   -0.5718   21.6542 H   0  0  0  0  0  0  0  0  0  0  0  0
   16.5468   -1.5259   19.5481 H   0  0  0  0  0  0  0  0  0  0  0  0
   17.8554   -2.2816   20.4452 H   0  0  0  0  0  0  0  0  0  0  0  0
   16.2218   -3.7768   21.6545 H   0  0  0  0  0  0  0  0  0  0  0  0
   15.9034   -5.2833   19.7480 H   0  0  0  0  0  0  0  0  0  0  0  0
   17.3711   -4.3911   19.4285 H   0  0  0  0  0  0  0  0  0  0  0  0
   16.0734   -2.8877   17.8354 H   0  0  0  0  0  0  0  0  0  0  0  0
   16.0624   -4.5931   17.3835 H   0  0  0  0  0  0  0  0  0  0  0  0
   14.6300   -3.8828   18.1273 H   0  0  0  0  0  0  0  0  0  0  0  0
   14.2941   -4.9798   21.1048 H   0  0  0  0  0  0  0  0  0  0  0  0
   12.2834   -3.8364   19.8782 H   0  0  0  0  0  0  0  0  0  0  0  0
   12.4918   -6.0244   19.6983 H   0  0  0  0  0  0  0  0  0  0  0  0
   11.7345   -6.4931   21.2574 H   0  0  0  0  0  0  0  0  0  0  0  0
    9.5546   -6.5012   19.7699 H   0  0  0  0  0  0  0  0  0  0  0  0
   10.4490   -5.3621   18.7412 H   0  0  0  0  0  0  0  0  0  0  0  0
    6.5269   -3.2609   22.1331 H   0  0  0  0  0  0  0  0  0  0  0  0
    5.4436   -3.1895   20.4564 H   0  0  0  0  0  0  0  0  0  0  0  0
    5.6526   -2.8536   23.5788 H   0  0  0  0  0  0  0  0  0  0  0  0
    4.0125   -2.3278   22.7898 H   0  0  0  0  0  0  0  0  0  0  0  0
    3.7860   -1.0834   24.2342 H   0  0  0  0  0  0  0  0  0  0  0  0
    5.0604   -0.0500   23.7069 H   0  0  0  0  0  0  0  0  0  0  0  0
    6.4159   -1.4570   25.5709 H   0  0  0  0  0  0  0  0  0  0  0  0
    5.8049    0.1039   27.1632 H   0  0  0  0  0  0  0  0  0  0  0  0
    5.0943    0.9378   25.7776 H   0  0  0  0  0  0  0  0  0  0  0  0
    2.9001   -0.0211   26.2516 H   0  0  0  0  0  0  0  0  0  0  0  0
    3.5082    0.4315   27.8498 H   0  0  0  0  0  0  0  0  0  0  0  0
    2.7255   -2.1265   27.4153 H   0  0  0  0  0  0  0  0  0  0  0  0
    4.1776   -1.7977   28.3549 H   0  0  0  0  0  0  0  0  0  0  0  0
    5.3509   -2.9941   26.8386 H   0  0  0  0  0  0  0  0  0  0  0  0
    4.0596   -3.0455   25.6685 H   0  0  0  0  0  0  0  0  0  0  0  0
   11.0666   -3.1354   22.0115 H   0  0  0  0  0  0  0  0  0  0  0  0
   11.3140   -4.6790   22.5980 H   0  0  0  0  0  0  0  0  0  0  0  0
  1  2  1  0
  2  3  1  0
  3  4  1  0
  4  5  1  0
  3  6  1  0
  6  7  2  0
  6  8  1  0
  8  9  1  0
  9 10  1  0
 10 11  1  0
 11 12  1  0
 12 13  1  0
 13 14  2  0
 13 15  1  0
 15 16  1  0
 16 17  1  0
 17 18  1  0
 18 19  1  0
 19 20  1  0
 20 21  1  0
 21 22  1  0
 12 23  1  0
 23  9  1  0
 22 18  1  0
  1 24  1  0
  1 25  1  0
  1 26  1  0
  2 27  1  0
  2 28  1  0
  3 29  1  0
  4 30  1  0
  4 31  1  0
  5 32  1  0
  5 33  1  0
  5 34  1  0
  8 35  1  0
  9 36  1  0
 10 37  1  0
 10 38  1  0
 11 39  1  0
 11 40  1  0
 15 41  1  0
 15 42  1  0
 16 43  1  0
 16 44  1  0
 17 45  1  0
 17 46  1  0
 18 47  1  0
 19 48  1  0
 19 49  1  0
 20 50  1  0
 20 51  1  0
 21 52  1  0
 21 53  1  0
 22 54  1  0
 22 55  1  0
 23 56  1  0
 23 57  1  0
M  END
>  <Energy>  (770) 
583.40618836600026

>  <compound_id>  (770) 
46704

>  <target_id>  (770) 
1

>  <reference_id>  (770) 
44

>  <inspiration_ids>  (770) 
[27, 44]

>  <energy_score>  (770) 
552.3334898788096

>  <distance_score>  (770) 
6.1459098872132

>  <path>  (770) 
/opt/xchem-fragalysis-2/maxwin/BulkDock/SCRATCH/511023/C46704-P44/C46704-P44.minimised.mol

>  <scratch_subdir>  (770) 
/opt/xchem-fragalysis-2/maxwin/BulkDock/SCRATCH/511023/C46704-P44

>  <fragmenstein_runtime>  (770) 
15.913374185562134

>  <fragmenstein_outcome>  (770) 
too moved

>  <fragmenstein_mode>  (770) 
expansion

>  <fragmenstein_error>  (770) 


$$$$
C10647-P27
     RDKit          3D

 56 57  0  0  0  0  0  0  0  0999 V2000
   14.7506    0.5488   19.2193 C   0  0  0  0  0  0  0  0  0  0  0  0
   14.5247    0.2076   20.6862 C   0  0  0  0  0  0  0  0  0  0  0  0
   15.1402   -1.1113   21.1889 C   0  0  0  0  0  0  0  0  0  0  0  0
   14.5472   -2.4284   20.6424 C   0  0  0  0  0  0  0  0  0  0  0  0
   14.7130   -2.6857   19.1472 C   0  0  0  0  0  0  0  0  0  0  0  0
   15.2179   -1.0981   22.7628 C   0  0  0  0  0  0  0  0  0  0  0  0
   16.3146   -1.1493   23.2453 O   0  0  0  0  0  0  0  0  0  0  0  0
   13.9220   -0.9937   23.3841 N   0  0  0  0  0  0  0  0  0  0  0  0
   13.5417   -0.8215   24.7852 C   0  0  0  0  0  0  0  0  0  0  0  0
   13.5507   -2.0356   25.5451 C   0  0  0  0  0  0  0  0  0  0  0  0
   11.9633   -1.8096   25.3917 C   0  0  0  0  0  0  0  0  0  0  0  0
   11.1711   -1.6494   26.5908 N   0  0  0  0  0  0  0  0  0  0  0  0
   10.5662   -0.5967   27.2693 C   0  0  0  0  0  0  0  0  0  0  0  0
   11.0994    0.0733   28.1443 O   0  0  0  0  0  0  0  0  0  0  0  0
    9.0788   -0.4011   26.8986 C   0  0  0  0  0  0  0  0  0  0  0  0
    8.0292   -0.9851   27.8834 C   0  0  0  0  0  0  0  0  0  0  0  0
    6.9789    0.0011   28.4784 C   0  0  0  0  0  0  0  0  0  0  0  0
    5.8361    0.4064   27.6364 N   0  0  0  0  0  0  0  0  0  0  0  0
    4.9071   -0.7009   27.3530 C   0  0  0  0  0  0  0  0  0  0  0  0
    3.6172   -0.0054   26.9311 C   0  0  0  0  0  0  0  0  0  0  0  0
    3.6696    1.3705   27.5784 C   0  0  0  0  0  0  0  0  0  0  0  0
    4.9960    1.4014   28.3251 C   0  0  0  0  0  0  0  0  0  0  0  0
   11.9739   -0.9273   25.0834 C   0  0  0  0  0  0  0  0  0  0  0  0
   14.0883   -0.0154   18.5620 H   0  0  0  0  0  0  0  0  0  0  0  0
   14.5311    1.6085   19.0494 H   0  0  0  0  0  0  0  0  0  0  0  0
   15.7882    0.3692   18.9230 H   0  0  0  0  0  0  0  0  0  0  0  0
   13.4590    0.2324   20.9087 H   0  0  0  0  0  0  0  0  0  0  0  0
   14.9602    1.0264   21.2754 H   0  0  0  0  0  0  0  0  0  0  0  0
   16.1930   -1.0974   20.8670 H   0  0  0  0  0  0  0  0  0  0  0  0
   15.0485   -3.2520   21.1695 H   0  0  0  0  0  0  0  0  0  0  0  0
   13.4954   -2.5340   20.9009 H   0  0  0  0  0  0  0  0  0  0  0  0
   14.5107   -3.7406   18.9311 H   0  0  0  0  0  0  0  0  0  0  0  0
   15.7333   -2.4665   18.8189 H   0  0  0  0  0  0  0  0  0  0  0  0
   14.0134   -2.1041   18.5474 H   0  0  0  0  0  0  0  0  0  0  0  0
   13.1994   -1.0604   22.6618 H   0  0  0  0  0  0  0  0  0  0  0  0
   14.0741    0.0135   25.2497 H   0  0  0  0  0  0  0  0  0  0  0  0
   13.9274   -2.9282   25.0357 H   0  0  0  0  0  0  0  0  0  0  0  0
   13.8844   -1.9508   26.5841 H   0  0  0  0  0  0  0  0  0  0  0  0
   11.9462   -2.9112   25.7686 H   0  0  0  0  0  0  0  0  0  0  0  0
   11.4461   -2.4977   24.4969 H   0  0  0  0  0  0  0  0  0  0  0  0
    8.9206    0.6710   26.7382 H   0  0  0  0  0  0  0  0  0  0  0  0
    8.9507   -0.9015   25.9334 H   0  0  0  0  0  0  0  0  0  0  0  0
    7.5090   -1.8175   27.3953 H   0  0  0  0  0  0  0  0  0  0  0  0
    8.5687   -1.4300   28.7297 H   0  0  0  0  0  0  0  0  0  0  0  0
    7.5244    0.9039   28.7829 H   0  0  0  0  0  0  0  0  0  0  0  0
    6.5990   -0.4511   29.4052 H   0  0  0  0  0  0  0  0  0  0  0  0
    5.2801   -1.3576   26.5629 H   0  0  0  0  0  0  0  0  0  0  0  0
    4.7185   -1.3066   28.2486 H   0  0  0  0  0  0  0  0  0  0  0  0
    3.5759    0.0938   25.8421 H   0  0  0  0  0  0  0  0  0  0  0  0
    2.7356   -0.5713   27.2487 H   0  0  0  0  0  0  0  0  0  0  0  0
    3.6335    2.1510   26.8109 H   0  0  0  0  0  0  0  0  0  0  0  0
    2.8256    1.5302   28.2571 H   0  0  0  0  0  0  0  0  0  0  0  0
    4.8266    1.1268   29.3745 H   0  0  0  0  0  0  0  0  0  0  0  0
    5.4478    2.3982   28.2986 H   0  0  0  0  0  0  0  0  0  0  0  0
   11.2366   -0.5481   24.2425 H   0  0  0  0  0  0  0  0  0  0  0  0
   11.9141    0.1662   25.4899 H   0  0  0  0  0  0  0  0  0  0  0  0
  1  2  1  0
  2  3  1  0
  3  4  1  0
  4  5  1  0
  3  6  1  0
  6  7  2  0
  6  8  1  0
  8  9  1  0
  9 10  1  0
 10 11  1  0
 11 12  1  0
 12 13  1  0
 13 14  2  0
 13 15  1  0
 15 16  1  0
 16 17  1  0
 17 18  1  0
 18 19  1  0
 19 20  1  0
 20 21  1  0
 21 22  1  0
 12 23  1  0
 23  9  1  0
 22 18  1  0
  1 24  1  0
  1 25  1  0
  1 26  1  0
  2 27  1  0
  2 28  1  0
  3 29  1  0
  4 30  1  0
  4 31  1  0
  5 32  1  0
  5 33  1  0
  5 34  1  0
  8 35  1  0
  9 36  1  0
 10 37  1  0
 10 38  1  0
 11 39  1  0
 11 40  1  0
 15 41  1  0
 15 42  1  0
 16 43  1  0
 16 44  1  0
 17 45  1  0
 17 46  1  0
 19 47  1  0
 19 48  1  0
 20 49  1  0
 20 50  1  0
 21 51  1  0
 21 52  1  0
 22 53  1  0
 22 54  1  0
 23 55  1  0
 23 56  1  0
M  END
>  <Energy>  (771) 
551.90137101864502

>  <compound_id>  (771) 
10647

>  <target_id>  (771) 
1

>  <reference_id>  (771) 
27

>  <inspiration_ids>  (771) 
[27, 44]

>  <energy_score>  (771) 
517.0328094834381

>  <distance_score>  (771) 
7.060345859117434

>  <path>  (771) 
/opt/xchem-fragalysis-2/maxwin/BulkDock/SCRATCH/511023/C10647-P27/C10647-P27.minimised.mol

>  <scratch_subdir>  (771) 
/opt/xchem-fragalysis-2/maxwin/BulkDock/SCRATCH/511023/C10647-P27

>  <fragmenstein_runtime>  (771) 
18.748699426651

>  <fragmenstein_outcome>  (771) 
too moved

>  <fragmenstein_mode>  (771) 
expansion

>  <fragmenstein_error>  (771) 


$$$$
C10647-P44
     RDKit          3D

 56 57  0  0  0  0  0  0  0  0999 V2000
   14.9551   -1.4579   20.6648 C   0  0  0  0  0  0  0  0  0  0  0  0
   14.4198   -1.8231   22.0433 C   0  0  0  0  0  0  0  0  0  0  0  0
   13.5748   -3.1218   22.1690 C   0  0  0  0  0  0  0  0  0  0  0  0
   14.2111   -4.3175   21.4222 C   0  0  0  0  0  0  0  0  0  0  0  0
   13.7535   -4.4727   19.9698 C   0  0  0  0  0  0  0  0  0  0  0  0
   13.3139   -3.4137   23.7034 C   0  0  0  0  0  0  0  0  0  0  0  0
   13.8825   -4.3190   24.2432 O   0  0  0  0  0  0  0  0  0  0  0  0
   12.3979   -2.4276   24.2310 N   0  0  0  0  0  0  0  0  0  0  0  0
   11.9544   -2.1660   25.5961 C   0  0  0  0  0  0  0  0  0  0  0  0
   11.8403   -0.6524   25.8221 C   0  0  0  0  0  0  0  0  0  0  0  0
   10.8637   -0.5086   26.9871 C   0  0  0  0  0  0  0  0  0  0  0  0
    9.9950   -1.6590   26.8910 N   0  0  0  0  0  0  0  0  0  0  0  0
    8.8203   -1.7836   27.6084 C   0  0  0  0  0  0  0  0  0  0  0  0
    8.8293   -2.3086   28.7223 O   0  0  0  0  0  0  0  0  0  0  0  0
    7.5490   -1.1463   27.0131 C   0  0  0  0  0  0  0  0  0  0  0  0
    6.2834   -1.4403   27.8658 C   0  0  0  0  0  0  0  0  0  0  0  0
    4.9255   -1.0588   27.2346 C   0  0  0  0  0  0  0  0  0  0  0  0
    4.5309    0.3542   27.3425 N   0  0  0  0  0  0  0  0  0  0  0  0
    3.3287    0.6197   26.5390 C   0  0  0  0  0  0  0  0  0  0  0  0
    2.8410    1.9636   27.0509 C   0  0  0  0  0  0  0  0  0  0  0  0
    3.2766    1.9945   28.5086 C   0  0  0  0  0  0  0  0  0  0  0  0
    4.1369    0.7466   28.7022 C   0  0  0  0  0  0  0  0  0  0  0  0
   10.5265   -2.6447   25.9510 C   0  0  0  0  0  0  0  0  0  0  0  0
   15.7096   -2.1743   20.3271 H   0  0  0  0  0  0  0  0  0  0  0  0
   14.1616   -1.4147   19.9239 H   0  0  0  0  0  0  0  0  0  0  0  0
   15.4343   -0.4739   20.7005 H   0  0  0  0  0  0  0  0  0  0  0  0
   13.8349   -0.9727   22.4119 H   0  0  0  0  0  0  0  0  0  0  0  0
   15.2774   -1.8996   22.7253 H   0  0  0  0  0  0  0  0  0  0  0  0
   12.5903   -2.9794   21.7200 H   0  0  0  0  0  0  0  0  0  0  0  0
   15.3045   -4.2444   21.4579 H   0  0  0  0  0  0  0  0  0  0  0  0
   13.9576   -5.2544   21.9335 H   0  0  0  0  0  0  0  0  0  0  0  0
   14.3472   -5.2503   19.4788 H   0  0  0  0  0  0  0  0  0  0  0  0
   13.8548   -3.5570   19.3871 H   0  0  0  0  0  0  0  0  0  0  0  0
   12.7110   -4.7936   19.9386 H   0  0  0  0  0  0  0  0  0  0  0  0
   12.0428   -1.8566   23.4613 H   0  0  0  0  0  0  0  0  0  0  0  0
   12.6766   -2.6068   26.2930 H   0  0  0  0  0  0  0  0  0  0  0  0
   11.4165   -0.1584   24.9386 H   0  0  0  0  0  0  0  0  0  0  0  0
   12.8070   -0.1822   26.0274 H   0  0  0  0  0  0  0  0  0  0  0  0
   10.2870    0.4203   26.9544 H   0  0  0  0  0  0  0  0  0  0  0  0
   11.3851   -0.5648   27.9489 H   0  0  0  0  0  0  0  0  0  0  0  0
    7.7025   -0.0648   26.9381 H   0  0  0  0  0  0  0  0  0  0  0  0
    7.4151   -1.5482   26.0058 H   0  0  0  0  0  0  0  0  0  0  0  0
    6.2562   -2.5232   28.0493 H   0  0  0  0  0  0  0  0  0  0  0  0
    6.3924   -0.9791   28.8546 H   0  0  0  0  0  0  0  0  0  0  0  0
    4.1494   -1.6943   27.6827 H   0  0  0  0  0  0  0  0  0  0  0  0
    4.9694   -1.3373   26.1732 H   0  0  0  0  0  0  0  0  0  0  0  0
    3.5591    0.6554   25.4702 H   0  0  0  0  0  0  0  0  0  0  0  0
    2.5573   -0.1401   26.7143 H   0  0  0  0  0  0  0  0  0  0  0  0
    3.3228    2.7816   26.5023 H   0  0  0  0  0  0  0  0  0  0  0  0
    1.7579    2.0762   26.9422 H   0  0  0  0  0  0  0  0  0  0  0  0
    3.8521    2.9053   28.7092 H   0  0  0  0  0  0  0  0  0  0  0  0
    2.4149    1.9849   29.1843 H   0  0  0  0  0  0  0  0  0  0  0  0
    3.5373   -0.0317   29.1916 H   0  0  0  0  0  0  0  0  0  0  0  0
    5.0057    0.9588   29.3330 H   0  0  0  0  0  0  0  0  0  0  0  0
   10.5089   -3.6435   26.3968 H   0  0  0  0  0  0  0  0  0  0  0  0
    9.8876   -2.6431   25.0775 H   0  0  0  0  0  0  0  0  0  0  0  0
  1  2  1  0
  2  3  1  0
  3  4  1  0
  4  5  1  0
  3  6  1  0
  6  7  2  0
  6  8  1  0
  8  9  1  0
  9 10  1  0
 10 11  1  0
 11 12  1  0
 12 13  1  0
 13 14  2  0
 13 15  1  0
 15 16  1  0
 16 17  1  0
 17 18  1  0
 18 19  1  0
 19 20  1  0
 20 21  1  0
 21 22  1  0
 12 23  1  0
 23  9  1  0
 22 18  1  0
  1 24  1  0
  1 25  1  0
  1 26  1  0
  2 27  1  0
  2 28  1  0
  3 29  1  0
  4 30  1  0
  4 31  1  0
  5 32  1  0
  5 33  1  0
  5 34  1  0
  8 35  1  0
  9 36  1  0
 10 37  1  0
 10 38  1  0
 11 39  1  0
 11 40  1  0
 15 41  1  0
 15 42  1  0
 16 43  1  0
 16 44  1  0
 17 45  1  0
 17 46  1  0
 19 47  1  0
 19 48  1  0
 20 49  1  0
 20 50  1  0
 21 51  1  0
 21 52  1  0
 22 53  1  0
 22 54  1  0
 23 55  1  0
 23 56  1  0
M  END
>  <Energy>  (772) 
27.381930777931842

>  <compound_id>  (772) 
10647

>  <target_id>  (772) 
1

>  <reference_id>  (772) 
44

>  <inspiration_ids>  (772) 
[27, 44]

>  <energy_score>  (772) 
-7.486630757275066

>  <distance_score>  (772) 
7.092816663072692

>  <path>  (772) 
/opt/xchem-fragalysis-2/maxwin/BulkDock/SCRATCH/511023/C10647-P44/C10647-P44.minimised.mol

>  <scratch_subdir>  (772) 
/opt/xchem-fragalysis-2/maxwin/BulkDock/SCRATCH/511023/C10647-P44

>  <fragmenstein_runtime>  (772) 
16.720308303833008

>  <fragmenstein_outcome>  (772) 
too moved

>  <fragmenstein_mode>  (772) 
expansion

>  <fragmenstein_error>  (772) 


$$$$
C46705-P27
     RDKit          3D

 55 56  0  0  0  0  0  0  0  0999 V2000
   15.6981   -1.0462   15.9194 C   0  0  0  0  0  0  0  0  0  0  0  0
   14.9914   -1.7838   17.0495 C   0  0  0  0  0  0  0  0  0  0  0  0
   13.8492   -2.7062   16.5629 C   0  0  0  0  0  0  0  0  0  0  0  0
   12.6617   -1.8884   16.0129 C   0  0  0  0  0  0  0  0  0  0  0  0
   11.6185   -2.7340   15.2973 C   0  0  0  0  0  0  0  0  0  0  0  0
   13.3842   -3.7194   17.6556 C   0  0  0  0  0  0  0  0  0  0  0  0
   13.2970   -4.8814   17.3856 O   0  0  0  0  0  0  0  0  0  0  0  0
   13.0367   -3.0075   18.8492 N   0  0  0  0  0  0  0  0  0  0  0  0
   12.5556   -3.4851   20.1522 C   0  0  0  0  0  0  0  0  0  0  0  0
   10.8008   -3.3838   20.8440 C   0  0  0  0  0  0  0  0  0  0  0  0
    8.6362   -3.1724   21.0061 N   0  0  0  0  0  0  0  0  0  0  0  0
    7.4586   -1.5034   20.9626 C   0  0  0  0  0  0  0  0  0  0  0  0
    7.9883   -0.4668   20.6688 O   0  0  0  0  0  0  0  0  0  0  0  0
    5.5356   -1.1173   21.6137 C   0  0  0  0  0  0  0  0  0  0  0  0
    4.3482    0.6378   21.6541 C   0  0  0  0  0  0  0  0  0  0  0  0
    3.6936    1.4663   22.6620 O   0  0  0  0  0  0  0  0  0  0  0  0
    2.6391    1.7558   21.2597 C   0  0  0  0  0  0  0  0  0  0  0  0
    2.1286    2.8248   20.1382 C   0  0  0  0  0  0  0  0  0  0  0  0
    0.9862    3.7600   20.5925 C   0  0  0  0  0  0  0  0  0  0  0  0
    0.7418    3.5555   22.0508 C   0  0  0  0  0  0  0  0  0  0  0  0
    2.0673    3.0089   22.4935 C   0  0  0  0  0  0  0  0  0  0  0  0
   13.3782   -4.6981   20.6723 C   0  0  0  0  0  0  0  0  0  0  0  0
   13.6458   -3.3571   21.2416 C   0  0  0  0  0  0  0  0  0  0  0  0
   15.0449   -0.3122   15.4400 H   0  0  0  0  0  0  0  0  0  0  0  0
   16.0555   -1.7450   15.1566 H   0  0  0  0  0  0  0  0  0  0  0  0
   16.5651   -0.5051   16.3125 H   0  0  0  0  0  0  0  0  0  0  0  0
   15.7309   -2.3867   17.5911 H   0  0  0  0  0  0  0  0  0  0  0  0
   14.6257   -1.0281   17.7534 H   0  0  0  0  0  0  0  0  0  0  0  0
   14.2661   -3.3148   15.7559 H   0  0  0  0  0  0  0  0  0  0  0  0
   12.1758   -1.3365   16.8230 H   0  0  0  0  0  0  0  0  0  0  0  0
   13.0137   -1.1369   15.2987 H   0  0  0  0  0  0  0  0  0  0  0  0
   11.2750   -3.5664   15.9150 H   0  0  0  0  0  0  0  0  0  0  0  0
   10.7488   -2.1195   15.0445 H   0  0  0  0  0  0  0  0  0  0  0  0
   12.0188   -3.1388   14.3642 H   0  0  0  0  0  0  0  0  0  0  0  0
   13.3252   -2.0507   18.7543 H   0  0  0  0  0  0  0  0  0  0  0  0
   11.1988   -3.2832   21.9061 H   0  0  0  0  0  0  0  0  0  0  0  0
   11.0535   -4.5598   20.8471 H   0  0  0  0  0  0  0  0  0  0  0  0
    8.0817   -3.9613   21.3500 H   0  0  0  0  0  0  0  0  0  0  0  0
    5.4203   -1.2733   22.6999 H   0  0  0  0  0  0  0  0  0  0  0  0
    5.3670   -2.2000   21.4811 H   0  0  0  0  0  0  0  0  0  0  0  0
    3.6886   -0.0867   21.5221 H   0  0  0  0  0  0  0  0  0  0  0  0
    3.7736    2.4006   22.5014 H   0  0  0  0  0  0  0  0  0  0  0  0
    1.8111    1.0960   21.2043 H   0  0  0  0  0  0  0  0  0  0  0  0
    2.9211    3.5348   19.8679 H   0  0  0  0  0  0  0  0  0  0  0  0
    1.7182    2.3001   19.2646 H   0  0  0  0  0  0  0  0  0  0  0  0
    1.2897    4.8000   20.4105 H   0  0  0  0  0  0  0  0  0  0  0  0
    0.0857    3.6230   19.9980 H   0  0  0  0  0  0  0  0  0  0  0  0
    0.4968    4.4937   22.5588 H   0  0  0  0  0  0  0  0  0  0  0  0
   -0.0822    2.8678   22.2396 H   0  0  0  0  0  0  0  0  0  0  0  0
    2.7760    3.8568   22.4768 H   0  0  0  0  0  0  0  0  0  0  0  0
    2.0206    2.6420   23.5274 H   0  0  0  0  0  0  0  0  0  0  0  0
   12.9264   -5.4284   21.3278 H   0  0  0  0  0  0  0  0  0  0  0  0
   14.1298   -5.1309   20.0211 H   0  0  0  0  0  0  0  0  0  0  0  0
   13.3601   -3.1893   22.2741 H   0  0  0  0  0  0  0  0  0  0  0  0
   14.5783   -2.8676   20.9834 H   0  0  0  0  0  0  0  0  0  0  0  0
  1  2  1  0
  2  3  1  0
  3  4  1  0
  4  5  1  0
  3  6  1  0
  6  7  2  0
  6  8  1  0
  8  9  1  0
  9 10  1  0
 10 11  1  0
 11 12  1  0
 12 13  2  0
 12 14  1  0
 14 15  1  0
 15 16  1  0
 15 17  1  0
 17 18  1  0
 18 19  1  0
 19 20  1  0
 20 21  1  0
  9 22  1  0
 22 23  1  0
 23  9  1  0
 21 17  1  0
  1 24  1  0
  1 25  1  0
  1 26  1  0
  2 27  1  0
  2 28  1  0
  3 29  1  0
  4 30  1  0
  4 31  1  0
  5 32  1  0
  5 33  1  0
  5 34  1  0
  8 35  1  0
 10 36  1  0
 10 37  1  0
 11 38  1  0
 14 39  1  0
 14 40  1  0
 15 41  1  0
 16 42  1  0
 17 43  1  0
 18 44  1  0
 18 45  1  0
 19 46  1  0
 19 47  1  0
 20 48  1  0
 20 49  1  0
 21 50  1  0
 21 51  1  0
 22 52  1  0
 22 53  1  0
 23 54  1  0
 23 55  1  0
M  END
>  <Energy>  (773) 
987.35562827785077

>  <compound_id>  (773) 
46705

>  <target_id>  (773) 
1

>  <reference_id>  (773) 
27

>  <inspiration_ids>  (773) 
[27, 44]

>  <energy_score>  (773) 
915.2986547421103

>  <distance_score>  (773) 
5.712398737176685

>  <path>  (773) 
/opt/xchem-fragalysis-2/maxwin/BulkDock/SCRATCH/511023/C46705-P27/C46705-P27.minimised.mol

>  <scratch_subdir>  (773) 
/opt/xchem-fragalysis-2/maxwin/BulkDock/SCRATCH/511023/C46705-P27

>  <fragmenstein_runtime>  (773) 
19.35589098930359

>  <fragmenstein_outcome>  (773) 
too moved

>  <fragmenstein_mode>  (773) 
expansion

>  <fragmenstein_error>  (773) 


$$$$
C46705-P44
     RDKit          3D

 55 56  0  0  0  0  0  0  0  0999 V2000
   15.7231   -1.6112   18.1285 C   0  0  0  0  0  0  0  0  0  0  0  0
   14.7520   -2.6209   18.7298 C   0  0  0  0  0  0  0  0  0  0  0  0
   14.1071   -3.6555   17.7665 C   0  0  0  0  0  0  0  0  0  0  0  0
   13.8676   -3.0218   16.3626 C   0  0  0  0  0  0  0  0  0  0  0  0
   13.5268   -4.0136   15.2605 C   0  0  0  0  0  0  0  0  0  0  0  0
   12.7521   -4.2079   18.3354 C   0  0  0  0  0  0  0  0  0  0  0  0
   11.8034   -4.2212   17.5974 O   0  0  0  0  0  0  0  0  0  0  0  0
   12.8607   -4.5415   19.7620 N   0  0  0  0  0  0  0  0  0  0  0  0
   11.7903   -4.9140   20.7931 C   0  0  0  0  0  0  0  0  0  0  0  0
   10.0075   -5.2887   20.3787 C   0  0  0  0  0  0  0  0  0  0  0  0
    8.4116   -4.1380   20.6362 N   0  0  0  0  0  0  0  0  0  0  0  0
    7.0085   -4.3070   20.1978 C   0  0  0  0  0  0  0  0  0  0  0  0
    6.5070   -5.1448   19.4923 O   0  0  0  0  0  0  0  0  0  0  0  0
    5.8651   -2.8554   21.1706 C   0  0  0  0  0  0  0  0  0  0  0  0
    5.0879   -2.1825   23.0258 C   0  0  0  0  0  0  0  0  0  0  0  0
    5.5071   -3.0177   24.2071 O   0  0  0  0  0  0  0  0  0  0  0  0
    5.0002   -0.7668   24.2799 C   0  0  0  0  0  0  0  0  0  0  0  0
    3.8090   -0.1997   25.1148 C   0  0  0  0  0  0  0  0  0  0  0  0
    3.8150   -0.6023   26.5835 C   0  0  0  0  0  0  0  0  0  0  0  0
    5.0702   -1.3995   26.7384 C   0  0  0  0  0  0  0  0  0  0  0  0
    5.9368   -0.8877   25.6028 C   0  0  0  0  0  0  0  0  0  0  0  0
   12.1505   -4.3898   22.1846 C   0  0  0  0  0  0  0  0  0  0  0  0
   12.4196   -5.8254   21.8617 C   0  0  0  0  0  0  0  0  0  0  0  0
   16.5202   -2.1157   17.5736 H   0  0  0  0  0  0  0  0  0  0  0  0
   16.1923   -1.0279   18.9281 H   0  0  0  0  0  0  0  0  0  0  0  0
   15.2190   -0.9015   17.4665 H   0  0  0  0  0  0  0  0  0  0  0  0
   15.3020   -3.1708   19.5042 H   0  0  0  0  0  0  0  0  0  0  0  0
   13.9775   -2.0655   19.2606 H   0  0  0  0  0  0  0  0  0  0  0  0
   14.7918   -4.5038   17.6572 H   0  0  0  0  0  0  0  0  0  0  0  0
   13.0797   -2.2607   16.4231 H   0  0  0  0  0  0  0  0  0  0  0  0
   14.7747   -2.5156   16.0185 H   0  0  0  0  0  0  0  0  0  0  0  0
   12.5834   -4.5379   15.4224 H   0  0  0  0  0  0  0  0  0  0  0  0
   13.4450   -3.4843   14.3052 H   0  0  0  0  0  0  0  0  0  0  0  0
   14.3221   -4.7585   15.1654 H   0  0  0  0  0  0  0  0  0  0  0  0
   13.8304   -4.4974   20.0392 H   0  0  0  0  0  0  0  0  0  0  0  0
   10.1499   -6.2143   20.9178 H   0  0  0  0  0  0  0  0  0  0  0  0
    9.9948   -5.6414   19.3663 H   0  0  0  0  0  0  0  0  0  0  0  0
    8.4856   -3.2734   21.1562 H   0  0  0  0  0  0  0  0  0  0  0  0
    5.0118   -3.1164   20.5562 H   0  0  0  0  0  0  0  0  0  0  0  0
    6.1150   -1.9220   20.6803 H   0  0  0  0  0  0  0  0  0  0  0  0
    3.9846   -2.1620   22.9796 H   0  0  0  0  0  0  0  0  0  0  0  0
    6.3176   -3.5127   24.0106 H   0  0  0  0  0  0  0  0  0  0  0  0
    5.2149    0.1036   23.6760 H   0  0  0  0  0  0  0  0  0  0  0  0
    3.8990    0.8993   25.1046 H   0  0  0  0  0  0  0  0  0  0  0  0
    2.8616   -0.3754   24.6886 H   0  0  0  0  0  0  0  0  0  0  0  0
    3.8409    0.2933   27.2158 H   0  0  0  0  0  0  0  0  0  0  0  0
    2.9359   -1.1763   26.8859 H   0  0  0  0  0  0  0  0  0  0  0  0
    5.5391   -1.2515   27.7157 H   0  0  0  0  0  0  0  0  0  0  0  0
    4.8644   -2.4687   26.6225 H   0  0  0  0  0  0  0  0  0  0  0  0
    6.3049    0.1191   25.8496 H   0  0  0  0  0  0  0  0  0  0  0  0
    6.8226   -1.5245   25.5307 H   0  0  0  0  0  0  0  0  0  0  0  0
   12.9995   -3.7148   22.2642 H   0  0  0  0  0  0  0  0  0  0  0  0
   11.4008   -4.1321   22.9128 H   0  0  0  0  0  0  0  0  0  0  0  0
   13.4565   -6.1264   21.7392 H   0  0  0  0  0  0  0  0  0  0  0  0
   11.8359   -6.6115   22.3158 H   0  0  0  0  0  0  0  0  0  0  0  0
  1  2  1  0
  2  3  1  0
  3  4  1  0
  4  5  1  0
  3  6  1  0
  6  7  2  0
  6  8  1  0
  8  9  1  0
  9 10  1  0
 10 11  1  0
 11 12  1  0
 12 13  2  0
 12 14  1  0
 14 15  1  0
 15 16  1  0
 15 17  1  0
 17 18  1  0
 18 19  1  0
 19 20  1  0
 20 21  1  0
  9 22  1  0
 22 23  1  0
 23  9  1  0
 21 17  1  0
  1 24  1  0
  1 25  1  0
  1 26  1  0
  2 27  1  0
  2 28  1  0
  3 29  1  0
  4 30  1  0
  4 31  1  0
  5 32  1  0
  5 33  1  0
  5 34  1  0
  8 35  1  0
 10 36  1  0
 10 37  1  0
 11 38  1  0
 14 39  1  0
 14 40  1  0
 15 41  1  0
 16 42  1  0
 17 43  1  0
 18 44  1  0
 18 45  1  0
 19 46  1  0
 19 47  1  0
 20 48  1  0
 20 49  1  0
 21 50  1  0
 21 51  1  0
 22 52  1  0
 22 53  1  0
 23 54  1  0
 23 55  1  0
M  END
>  <Energy>  (774) 
439.54139014997264

>  <compound_id>  (774) 
46705

>  <target_id>  (774) 
1

>  <reference_id>  (774) 
44

>  <inspiration_ids>  (774) 
[27, 44]

>  <energy_score>  (774) 
367.4844166142378

>  <distance_score>  (774) 
5.971907697264105

>  <path>  (774) 
/opt/xchem-fragalysis-2/maxwin/BulkDock/SCRATCH/511023/C46705-P44/C46705-P44.minimised.mol

>  <scratch_subdir>  (774) 
/opt/xchem-fragalysis-2/maxwin/BulkDock/SCRATCH/511023/C46705-P44

>  <fragmenstein_runtime>  (774) 
20.06580424308777

>  <fragmenstein_outcome>  (774) 
too moved

>  <fragmenstein_mode>  (774) 
expansion

>  <fragmenstein_error>  (774) 


$$$$
C46714-P27
     RDKit          3D

 54 55  0  0  0  0  0  0  0  0999 V2000
   13.3022    0.6463   15.7900 C   0  0  0  0  0  0  0  0  0  0  0  0
   14.0910   -0.6539   15.8853 C   0  0  0  0  0  0  0  0  0  0  0  0
   13.2012   -1.9279   15.9503 C   0  0  0  0  0  0  0  0  0  0  0  0
   12.5773   -2.2163   14.5983 C   0  0  0  0  0  0  0  0  0  0  0  0
   11.3855   -3.1379   14.7229 C   0  0  0  0  0  0  0  0  0  0  0  0
   14.0825   -3.0394   16.6289 C   0  0  0  0  0  0  0  0  0  0  0  0
   15.2352   -3.1455   16.3257 O   0  0  0  0  0  0  0  0  0  0  0  0
   13.3099   -3.7192   17.6357 N   0  0  0  0  0  0  0  0  0  0  0  0
   13.7175   -4.6941   18.6921 C   0  0  0  0  0  0  0  0  0  0  0  0
   14.4463   -3.8098   19.6009 C   0  0  0  0  0  0  0  0  0  0  0  0
   12.9260   -3.8741   20.1017 C   0  0  0  0  0  0  0  0  0  0  0  0
   12.0355   -3.1266   20.7385 N   0  0  0  0  0  0  0  0  0  0  0  0
   10.8727   -3.3715   21.6361 C   0  0  0  0  0  0  0  0  0  0  0  0
   11.2942   -3.4029   22.8639 O   0  0  0  0  0  0  0  0  0  0  0  0
    8.5497   -3.5136   21.4456 C   0  0  0  0  0  0  0  0  0  0  0  0
    7.2794   -3.8573   23.1066 C   0  0  0  0  0  0  0  0  0  0  0  0
    6.0747   -2.7796   24.3929 C   0  0  0  0  0  0  0  0  0  0  0  0
    6.8556   -2.0530   25.8707 C   0  0  0  0  0  0  0  0  0  0  0  0
    5.7177   -1.4171   26.6990 C   0  0  0  0  0  0  0  0  0  0  0  0
    4.3790   -1.5748   25.9664 C   0  0  0  0  0  0  0  0  0  0  0  0
    4.4844   -2.6160   24.8349 C   0  0  0  0  0  0  0  0  0  0  0  0
   12.7348   -4.8048   20.2019 C   0  0  0  0  0  0  0  0  0  0  0  0
   13.9865    1.5006   15.8171 H   0  0  0  0  0  0  0  0  0  0  0  0
   12.6085    0.7457   16.6293 H   0  0  0  0  0  0  0  0  0  0  0  0
   12.7313    0.7110   14.8601 H   0  0  0  0  0  0  0  0  0  0  0  0
   14.7121   -0.5916   16.7885 H   0  0  0  0  0  0  0  0  0  0  0  0
   14.7831   -0.7232   15.0367 H   0  0  0  0  0  0  0  0  0  0  0  0
   12.3926   -1.6772   16.6508 H   0  0  0  0  0  0  0  0  0  0  0  0
   13.3221   -2.6089   13.9068 H   0  0  0  0  0  0  0  0  0  0  0  0
   12.2173   -1.2951   14.1269 H   0  0  0  0  0  0  0  0  0  0  0  0
   11.1724   -3.5825   13.7500 H   0  0  0  0  0  0  0  0  0  0  0  0
   10.5032   -2.5795   15.0495 H   0  0  0  0  0  0  0  0  0  0  0  0
   11.5535   -3.9380   15.4442 H   0  0  0  0  0  0  0  0  0  0  0  0
   12.3395   -3.4358   17.5553 H   0  0  0  0  0  0  0  0  0  0  0  0
   14.4521   -5.4362   18.4532 H   0  0  0  0  0  0  0  0  0  0  0  0
   15.1643   -4.3252   20.2536 H   0  0  0  0  0  0  0  0  0  0  0  0
   14.8057   -2.8290   19.2708 H   0  0  0  0  0  0  0  0  0  0  0  0
   13.5466   -3.4418   21.0744 H   0  0  0  0  0  0  0  0  0  0  0  0
   12.7887   -2.9754   19.4151 H   0  0  0  0  0  0  0  0  0  0  0  0
    7.7888   -2.8615   21.1960 H   0  0  0  0  0  0  0  0  0  0  0  0
    8.2796   -4.3415   20.7325 H   0  0  0  0  0  0  0  0  0  0  0  0
    6.5338   -3.5906   22.4425 H   0  0  0  0  0  0  0  0  0  0  0  0
    7.2585   -4.9331   23.2841 H   0  0  0  0  0  0  0  0  0  0  0  0
    5.7882   -2.0074   23.6545 H   0  0  0  0  0  0  0  0  0  0  0  0
    7.7729   -1.4876   25.7267 H   0  0  0  0  0  0  0  0  0  0  0  0
    7.3908   -2.7836   26.5050 H   0  0  0  0  0  0  0  0  0  0  0  0
    5.6586   -1.9154   27.6744 H   0  0  0  0  0  0  0  0  0  0  0  0
    5.9203   -0.3616   26.9079 H   0  0  0  0  0  0  0  0  0  0  0  0
    3.5891   -1.8603   26.6708 H   0  0  0  0  0  0  0  0  0  0  0  0
    4.0651   -0.6086   25.5571 H   0  0  0  0  0  0  0  0  0  0  0  0
    4.0269   -3.5398   25.1506 H   0  0  0  0  0  0  0  0  0  0  0  0
    3.8687   -2.2773   23.9958 H   0  0  0  0  0  0  0  0  0  0  0  0
   13.2188   -5.4238   21.0879 H   0  0  0  0  0  0  0  0  0  0  0  0
   11.8421   -5.4778   20.0145 H   0  0  0  0  0  0  0  0  0  0  0  0
  1  2  1  0
  2  3  1  0
  3  4  1  0
  4  5  1  0
  3  6  1  0
  6  7  2  0
  6  8  1  0
  8  9  1  0
  9 10  1  0
 10 11  1  0
 11 12  1  0
 12 13  1  0
 13 14  2  0
 13 15  1  0
 15 16  1  0
 16 17  1  0
 17 18  1  0
 18 19  1  0
 19 20  1  0
 20 21  1  0
 12 22  1  0
 22  9  1  0
 21 17  1  0
  1 23  1  0
  1 24  1  0
  1 25  1  0
  2 26  1  0
  2 27  1  0
  3 28  1  0
  4 29  1  0
  4 30  1  0
  5 31  1  0
  5 32  1  0
  5 33  1  0
  8 34  1  0
  9 35  1  0
 10 36  1  0
 10 37  1  0
 11 38  1  0
 11 39  1  0
 15 40  1  0
 15 41  1  0
 16 42  1  0
 16 43  1  0
 17 44  1  0
 18 45  1  0
 18 46  1  0
 19 47  1  0
 19 48  1  0
 20 49  1  0
 20 50  1  0
 21 51  1  0
 21 52  1  0
 22 53  1  0
 22 54  1  0
M  END
>  <Energy>  (775) 
1170.0687985585948

>  <compound_id>  (775) 
46714

>  <target_id>  (775) 
1

>  <reference_id>  (775) 
27

>  <inspiration_ids>  (775) 
[27, 44]

>  <energy_score>  (775) 
1127.204537555743

>  <distance_score>  (775) 
5.755618698205356

>  <path>  (775) 
/opt/xchem-fragalysis-2/maxwin/BulkDock/SCRATCH/511023/C46714-P27/C46714-P27.minimised.mol

>  <scratch_subdir>  (775) 
/opt/xchem-fragalysis-2/maxwin/BulkDock/SCRATCH/511023/C46714-P27

>  <fragmenstein_runtime>  (775) 
17.35412621498108

>  <fragmenstein_outcome>  (775) 
too moved

>  <fragmenstein_mode>  (775) 
expansion

>  <fragmenstein_error>  (775) 


$$$$
C46714-P44
     RDKit          3D

 54 55  0  0  0  0  0  0  0  0999 V2000
   14.1433    2.7366   20.8574 C   0  0  0  0  0  0  0  0  0  0  0  0
   14.2571    2.4827   22.3582 C   0  0  0  0  0  0  0  0  0  0  0  0
   13.3468    1.3428   22.8686 C   0  0  0  0  0  0  0  0  0  0  0  0
   14.0906   -0.0136   22.9074 C   0  0  0  0  0  0  0  0  0  0  0  0
   14.6063   -0.5470   21.5734 C   0  0  0  0  0  0  0  0  0  0  0  0
   12.6596    1.6700   24.2392 C   0  0  0  0  0  0  0  0  0  0  0  0
   13.0893    2.5442   24.9350 O   0  0  0  0  0  0  0  0  0  0  0  0
   11.4945    0.8272   24.3959 N   0  0  0  0  0  0  0  0  0  0  0  0
   10.5481    0.7133   25.4772 C   0  0  0  0  0  0  0  0  0  0  0  0
   11.0733    0.7395   26.8105 C   0  0  0  0  0  0  0  0  0  0  0  0
   10.0922    2.0434   26.9099 C   0  0  0  0  0  0  0  0  0  0  0  0
    8.7047    1.8191   27.3984 N   0  0  0  0  0  0  0  0  0  0  0  0
    7.4521    1.6086   26.8300 C   0  0  0  0  0  0  0  0  0  0  0  0
    7.0036    0.5043   26.5537 O   0  0  0  0  0  0  0  0  0  0  0  0
    6.6176    2.8904   26.6771 C   0  0  0  0  0  0  0  0  0  0  0  0
    5.1740    2.6764   26.1485 C   0  0  0  0  0  0  0  0  0  0  0  0
    4.1248    2.3304   27.2178 C   0  0  0  0  0  0  0  0  0  0  0  0
    3.6277    3.5256   28.0306 C   0  0  0  0  0  0  0  0  0  0  0  0
    2.3194    3.0376   28.6483 C   0  0  0  0  0  0  0  0  0  0  0  0
    1.7620    1.9922   27.6841 C   0  0  0  0  0  0  0  0  0  0  0  0
    2.8208    1.8172   26.6003 C   0  0  0  0  0  0  0  0  0  0  0  0
    9.8793    2.0440   26.0210 C   0  0  0  0  0  0  0  0  0  0  0  0
   14.8159    3.5492   20.5643 H   0  0  0  0  0  0  0  0  0  0  0  0
   13.1243    3.0414   20.6029 H   0  0  0  0  0  0  0  0  0  0  0  0
   14.4079    1.8580   20.2680 H   0  0  0  0  0  0  0  0  0  0  0  0
   14.0006    3.4257   22.8555 H   0  0  0  0  0  0  0  0  0  0  0  0
   15.3035    2.2806   22.6156 H   0  0  0  0  0  0  0  0  0  0  0  0
   12.5019    1.2860   22.1883 H   0  0  0  0  0  0  0  0  0  0  0  0
   13.4579   -0.7823   23.3625 H   0  0  0  0  0  0  0  0  0  0  0  0
   14.9441    0.0786   23.5924 H   0  0  0  0  0  0  0  0  0  0  0  0
   15.0137   -1.5539   21.7136 H   0  0  0  0  0  0  0  0  0  0  0  0
   15.4176    0.0747   21.1855 H   0  0  0  0  0  0  0  0  0  0  0  0
   13.8210   -0.6112   20.8265 H   0  0  0  0  0  0  0  0  0  0  0  0
   11.4832    0.1288   23.6453 H   0  0  0  0  0  0  0  0  0  0  0  0
    9.8328   -0.0916   25.2906 H   0  0  0  0  0  0  0  0  0  0  0  0
   10.7560   -0.0841   27.4583 H   0  0  0  0  0  0  0  0  0  0  0  0
   12.1281    1.0024   26.9311 H   0  0  0  0  0  0  0  0  0  0  0  0
   10.3541    1.9642   28.0430 H   0  0  0  0  0  0  0  0  0  0  0  0
   10.5948    3.1297   27.2406 H   0  0  0  0  0  0  0  0  0  0  0  0
    6.5983    3.4181   27.6365 H   0  0  0  0  0  0  0  0  0  0  0  0
    7.1511    3.5229   25.9568 H   0  0  0  0  0  0  0  0  0  0  0  0
    5.1851    1.8798   25.3960 H   0  0  0  0  0  0  0  0  0  0  0  0
    4.8629    3.5903   25.6266 H   0  0  0  0  0  0  0  0  0  0  0  0
    4.5232    1.5634   27.8948 H   0  0  0  0  0  0  0  0  0  0  0  0
    4.3462    3.8390   28.7939 H   0  0  0  0  0  0  0  0  0  0  0  0
    3.4302    4.3863   27.3798 H   0  0  0  0  0  0  0  0  0  0  0  0
    2.5138    2.5739   29.6225 H   0  0  0  0  0  0  0  0  0  0  0  0
    1.6179    3.8619   28.8110 H   0  0  0  0  0  0  0  0  0  0  0  0
    0.8065    2.3070   27.2520 H   0  0  0  0  0  0  0  0  0  0  0  0
    1.5881    1.0481   28.2124 H   0  0  0  0  0  0  0  0  0  0  0  0
    2.5501    2.4142   25.7206 H   0  0  0  0  0  0  0  0  0  0  0  0
    2.9125    0.7730   26.2863 H   0  0  0  0  0  0  0  0  0  0  0  0
    9.0434    1.9698   25.2227 H   0  0  0  0  0  0  0  0  0  0  0  0
   10.0525    3.1148   25.4616 H   0  0  0  0  0  0  0  0  0  0  0  0
  1  2  1  0
  2  3  1  0
  3  4  1  0
  4  5  1  0
  3  6  1  0
  6  7  2  0
  6  8  1  0
  8  9  1  0
  9 10  1  0
 10 11  1  0
 11 12  1  0
 12 13  1  0
 13 14  2  0
 13 15  1  0
 15 16  1  0
 16 17  1  0
 17 18  1  0
 18 19  1  0
 19 20  1  0
 20 21  1  0
 12 22  1  0
 22  9  1  0
 21 17  1  0
  1 23  1  0
  1 24  1  0
  1 25  1  0
  2 26  1  0
  2 27  1  0
  3 28  1  0
  4 29  1  0
  4 30  1  0
  5 31  1  0
  5 32  1  0
  5 33  1  0
  8 34  1  0
  9 35  1  0
 10 36  1  0
 10 37  1  0
 11 38  1  0
 11 39  1  0
 15 40  1  0
 15 41  1  0
 16 42  1  0
 16 43  1  0
 17 44  1  0
 18 45  1  0
 18 46  1  0
 19 47  1  0
 19 48  1  0
 20 49  1  0
 20 50  1  0
 21 51  1  0
 21 52  1  0
 22 53  1  0
 22 54  1  0
M  END
>  <Energy>  (776) 
537.30829819417454

>  <compound_id>  (776) 
46714

>  <target_id>  (776) 
1

>  <reference_id>  (776) 
44

>  <inspiration_ids>  (776) 
[27, 44]

>  <energy_score>  (776) 
494.4440371913269

>  <distance_score>  (776) 
8.360005991834523

>  <path>  (776) 
/opt/xchem-fragalysis-2/maxwin/BulkDock/SCRATCH/511023/C46714-P44/C46714-P44.minimised.mol

>  <scratch_subdir>  (776) 
/opt/xchem-fragalysis-2/maxwin/BulkDock/SCRATCH/511023/C46714-P44

>  <fragmenstein_runtime>  (776) 
18.59920573234558

>  <fragmenstein_outcome>  (776) 
too moved

>  <fragmenstein_mode>  (776) 
expansion

>  <fragmenstein_error>  (776) 


$$$$
C46716-P27
     RDKit          3D

 54 55  0  0  0  0  0  0  0  0999 V2000
   14.0846    2.5785   19.4371 C   0  0  0  0  0  0  0  0  0  0  0  0
   13.7543    2.4708   20.9181 C   0  0  0  0  0  0  0  0  0  0  0  0
   14.4371    1.3347   21.7049 C   0  0  0  0  0  0  0  0  0  0  0  0
   14.3783   -0.0657   21.0541 C   0  0  0  0  0  0  0  0  0  0  0  0
   15.4026   -0.3605   19.9635 C   0  0  0  0  0  0  0  0  0  0  0  0
   13.9224    1.4161   23.1985 C   0  0  0  0  0  0  0  0  0  0  0  0
   14.5288    2.1491   23.9299 O   0  0  0  0  0  0  0  0  0  0  0  0
   12.7608    0.5984   23.4403 N   0  0  0  0  0  0  0  0  0  0  0  0
   12.0215    0.3307   24.6597 C   0  0  0  0  0  0  0  0  0  0  0  0
   12.8409    0.1078   25.8172 C   0  0  0  0  0  0  0  0  0  0  0  0
   12.0269    1.4121   26.3485 C   0  0  0  0  0  0  0  0  0  0  0  0
   10.9489    1.1238   27.2848 N   0  0  0  0  0  0  0  0  0  0  0  0
    9.5654    0.9805   27.2260 C   0  0  0  0  0  0  0  0  0  0  0  0
    9.0144   -0.0917   27.0126 O   0  0  0  0  0  0  0  0  0  0  0  0
    8.7188    2.2531   27.5684 C   0  0  0  0  0  0  0  0  0  0  0  0
    8.9961    3.3925   26.5904 C   0  0  0  0  0  0  0  0  0  0  0  0
    7.1830    1.9315   27.6991 C   0  0  0  0  0  0  0  0  0  0  0  0
    6.2115    3.1231   27.6952 C   0  0  0  0  0  0  0  0  0  0  0  0
    4.8710    2.5251   28.1238 C   0  0  0  0  0  0  0  0  0  0  0  0
    5.2229    1.3155   28.9856 C   0  0  0  0  0  0  0  0  0  0  0  0
    6.7550    1.2387   28.9983 C   0  0  0  0  0  0  0  0  0  0  0  0
   11.5238    1.5359   25.5705 C   0  0  0  0  0  0  0  0  0  0  0  0
   15.1665    2.6203   19.2788 H   0  0  0  0  0  0  0  0  0  0  0  0
   13.6684    1.7469   18.8643 H   0  0  0  0  0  0  0  0  0  0  0  0
   13.6543    3.4986   19.0278 H   0  0  0  0  0  0  0  0  0  0  0  0
   12.6701    2.4209   21.0561 H   0  0  0  0  0  0  0  0  0  0  0  0
   14.0443    3.4211   21.3879 H   0  0  0  0  0  0  0  0  0  0  0  0
   15.5065    1.5850   21.7750 H   0  0  0  0  0  0  0  0  0  0  0  0
   14.5148   -0.8245   21.8346 H   0  0  0  0  0  0  0  0  0  0  0  0
   13.3976   -0.2233   20.6237 H   0  0  0  0  0  0  0  0  0  0  0  0
   15.2513    0.2367   19.0642 H   0  0  0  0  0  0  0  0  0  0  0  0
   16.4188   -0.1814   20.3287 H   0  0  0  0  0  0  0  0  0  0  0  0
   15.3343   -1.4127   19.6672 H   0  0  0  0  0  0  0  0  0  0  0  0
   12.5686    0.0398   22.6094 H   0  0  0  0  0  0  0  0  0  0  0  0
   11.2662   -0.4397   24.4952 H   0  0  0  0  0  0  0  0  0  0  0  0
   12.6130   -0.7976   26.3894 H   0  0  0  0  0  0  0  0  0  0  0  0
   13.9150    0.2899   25.7199 H   0  0  0  0  0  0  0  0  0  0  0  0
   12.6854    1.2321   27.2912 H   0  0  0  0  0  0  0  0  0  0  0  0
   12.6636    2.4561   26.5777 H   0  0  0  0  0  0  0  0  0  0  0  0
    9.0656    2.5818   28.5579 H   0  0  0  0  0  0  0  0  0  0  0  0
    8.4227    4.2900   26.8398 H   0  0  0  0  0  0  0  0  0  0  0  0
   10.0486    3.6887   26.6232 H   0  0  0  0  0  0  0  0  0  0  0  0
    8.7591    3.1055   25.5621 H   0  0  0  0  0  0  0  0  0  0  0  0
    6.9036    1.2427   26.9000 H   0  0  0  0  0  0  0  0  0  0  0  0
    6.5312    3.8765   28.4260 H   0  0  0  0  0  0  0  0  0  0  0  0
    6.1306    3.6133   26.7213 H   0  0  0  0  0  0  0  0  0  0  0  0
    4.2984    2.2034   27.2464 H   0  0  0  0  0  0  0  0  0  0  0  0
    4.2633    3.2550   28.6675 H   0  0  0  0  0  0  0  0  0  0  0  0
    4.8239    1.4059   30.0009 H   0  0  0  0  0  0  0  0  0  0  0  0
    4.7992    0.4065   28.5433 H   0  0  0  0  0  0  0  0  0  0  0  0
    7.1045    0.2035   29.0579 H   0  0  0  0  0  0  0  0  0  0  0  0
    7.1476    1.7772   29.8695 H   0  0  0  0  0  0  0  0  0  0  0  0
   10.4530    1.4835   25.1180 H   0  0  0  0  0  0  0  0  0  0  0  0
   11.5092    2.6629   25.1356 H   0  0  0  0  0  0  0  0  0  0  0  0
  1  2  1  0
  2  3  1  0
  3  4  1  0
  4  5  1  0
  3  6  1  0
  6  7  2  0
  6  8  1  0
  8  9  1  0
  9 10  1  0
 10 11  1  0
 11 12  1  0
 12 13  1  0
 13 14  2  0
 13 15  1  0
 15 16  1  0
 15 17  1  0
 17 18  1  0
 18 19  1  0
 19 20  1  0
 20 21  1  0
 12 22  1  0
 22  9  1  0
 21 17  1  0
  1 23  1  0
  1 24  1  0
  1 25  1  0
  2 26  1  0
  2 27  1  0
  3 28  1  0
  4 29  1  0
  4 30  1  0
  5 31  1  0
  5 32  1  0
  5 33  1  0
  8 34  1  0
  9 35  1  0
 10 36  1  0
 10 37  1  0
 11 38  1  0
 11 39  1  0
 15 40  1  0
 16 41  1  0
 16 42  1  0
 16 43  1  0
 17 44  1  0
 18 45  1  0
 18 46  1  0
 19 47  1  0
 19 48  1  0
 20 49  1  0
 20 50  1  0
 21 51  1  0
 21 52  1  0
 22 53  1  0
 22 54  1  0
M  END
>  <Energy>  (777) 
549.3639177322699

>  <compound_id>  (777) 
46716

>  <target_id>  (777) 
1

>  <reference_id>  (777) 
27

>  <inspiration_ids>  (777) 
[27, 44]

>  <energy_score>  (777) 
505.44095800811317

>  <distance_score>  (777) 
8.329947310083963

>  <path>  (777) 
/opt/xchem-fragalysis-2/maxwin/BulkDock/SCRATCH/511023/C46716-P27/C46716-P27.minimised.mol

>  <scratch_subdir>  (777) 
/opt/xchem-fragalysis-2/maxwin/BulkDock/SCRATCH/511023/C46716-P27

>  <fragmenstein_runtime>  (777) 
20.218066692352295

>  <fragmenstein_outcome>  (777) 
too moved

>  <fragmenstein_mode>  (777) 
expansion

>  <fragmenstein_error>  (777) 


$$$$
C46716-P44
     RDKit          3D

 54 55  0  0  0  0  0  0  0  0999 V2000
   15.7159    0.0628   20.2973 C   0  0  0  0  0  0  0  0  0  0  0  0
   14.7134   -0.1862   21.4182 C   0  0  0  0  0  0  0  0  0  0  0  0
   14.9635   -1.4617   22.2442 C   0  0  0  0  0  0  0  0  0  0  0  0
   14.1951   -2.7007   21.7275 C   0  0  0  0  0  0  0  0  0  0  0  0
   14.4622   -3.0865   20.2733 C   0  0  0  0  0  0  0  0  0  0  0  0
   14.7305   -1.1855   23.7763 C   0  0  0  0  0  0  0  0  0  0  0  0
   15.6853   -1.2825   24.4947 O   0  0  0  0  0  0  0  0  0  0  0  0
   13.3751   -0.7961   24.0639 N   0  0  0  0  0  0  0  0  0  0  0  0
   12.7574   -0.3046   25.2983 C   0  0  0  0  0  0  0  0  0  0  0  0
   12.2494    1.0294   25.1695 C   0  0  0  0  0  0  0  0  0  0  0  0
   10.8840    0.2162   25.1312 C   0  0  0  0  0  0  0  0  0  0  0  0
   10.2842   -0.5223   26.6519 N   0  0  0  0  0  0  0  0  0  0  0  0
    9.4163    0.4047   27.2347 C   0  0  0  0  0  0  0  0  0  0  0  0
    9.7466    1.2646   28.0386 O   0  0  0  0  0  0  0  0  0  0  0  0
    7.9328    0.1401   26.8190 C   0  0  0  0  0  0  0  0  0  0  0  0
    7.5162   -1.2751   27.2382 C   0  0  0  0  0  0  0  0  0  0  0  0
    6.8979    1.2364   27.2472 C   0  0  0  0  0  0  0  0  0  0  0  0
    6.3117    1.1214   28.6707 C   0  0  0  0  0  0  0  0  0  0  0  0
    4.8230    0.8176   28.5045 C   0  0  0  0  0  0  0  0  0  0  0  0
    4.4536    1.5484   27.2296 C   0  0  0  0  0  0  0  0  0  0  0  0
    5.6484    1.2738   26.3259 C   0  0  0  0  0  0  0  0  0  0  0  0
   11.1556   -0.5925   25.4085 C   0  0  0  0  0  0  0  0  0  0  0  0
   16.7252    0.1823   20.7042 H   0  0  0  0  0  0  0  0  0  0  0  0
   15.7388   -0.7512   19.5702 H   0  0  0  0  0  0  0  0  0  0  0  0
   15.4587    0.9826   19.7622 H   0  0  0  0  0  0  0  0  0  0  0  0
   13.7213   -0.2478   20.9884 H   0  0  0  0  0  0  0  0  0  0  0  0
   14.7223    0.6966   22.0690 H   0  0  0  0  0  0  0  0  0  0  0  0
   16.0342   -1.7023   22.1661 H   0  0  0  0  0  0  0  0  0  0  0  0
   13.1199   -2.5787   21.8669 H   0  0  0  0  0  0  0  0  0  0  0  0
   14.4690   -3.5545   22.3612 H   0  0  0  0  0  0  0  0  0  0  0  0
   13.9335   -4.0145   20.0317 H   0  0  0  0  0  0  0  0  0  0  0  0
   14.1210   -2.3214   19.5736 H   0  0  0  0  0  0  0  0  0  0  0  0
   15.5310   -3.2560   20.1092 H   0  0  0  0  0  0  0  0  0  0  0  0
   12.8101   -0.9085   23.2200 H   0  0  0  0  0  0  0  0  0  0  0  0
   13.3590   -0.5026   26.1908 H   0  0  0  0  0  0  0  0  0  0  0  0
   12.4583    1.5594   24.2366 H   0  0  0  0  0  0  0  0  0  0  0  0
   12.3407    1.6593   26.0599 H   0  0  0  0  0  0  0  0  0  0  0  0
   10.1883    0.2949   24.1566 H   0  0  0  0  0  0  0  0  0  0  0  0
   10.3153    1.2152   25.3479 H   0  0  0  0  0  0  0  0  0  0  0  0
    7.9550    0.1491   25.7251 H   0  0  0  0  0  0  0  0  0  0  0  0
    6.4673   -1.4752   27.0011 H   0  0  0  0  0  0  0  0  0  0  0  0
    8.1124   -2.0296   26.7134 H   0  0  0  0  0  0  0  0  0  0  0  0
    7.6707   -1.4399   28.3092 H   0  0  0  0  0  0  0  0  0  0  0  0
    7.3995    2.2106   27.1694 H   0  0  0  0  0  0  0  0  0  0  0  0
    6.4214    2.0905   29.1746 H   0  0  0  0  0  0  0  0  0  0  0  0
    6.8143    0.3847   29.3023 H   0  0  0  0  0  0  0  0  0  0  0  0
    4.2351    1.1535   29.3634 H   0  0  0  0  0  0  0  0  0  0  0  0
    4.6693   -0.2609   28.3845 H   0  0  0  0  0  0  0  0  0  0  0  0
    3.5144    1.1920   26.7971 H   0  0  0  0  0  0  0  0  0  0  0  0
    4.3611    2.6242   27.4187 H   0  0  0  0  0  0  0  0  0  0  0  0
    5.7446    2.0515   25.5631 H   0  0  0  0  0  0  0  0  0  0  0  0
    5.5074    0.3179   25.8090 H   0  0  0  0  0  0  0  0  0  0  0  0
   11.5358   -1.5653   25.9331 H   0  0  0  0  0  0  0  0  0  0  0  0
   10.7775   -1.5089   24.6809 H   0  0  0  0  0  0  0  0  0  0  0  0
  1  2  1  0
  2  3  1  0
  3  4  1  0
  4  5  1  0
  3  6  1  0
  6  7  2  0
  6  8  1  0
  8  9  1  0
  9 10  1  0
 10 11  1  0
 11 12  1  0
 12 13  1  0
 13 14  2  0
 13 15  1  0
 15 16  1  0
 15 17  1  0
 17 18  1  0
 18 19  1  0
 19 20  1  0
 20 21  1  0
 12 22  1  0
 22  9  1  0
 21 17  1  0
  1 23  1  0
  1 24  1  0
  1 25  1  0
  2 26  1  0
  2 27  1  0
  3 28  1  0
  4 29  1  0
  4 30  1  0
  5 31  1  0
  5 32  1  0
  5 33  1  0
  8 34  1  0
  9 35  1  0
 10 36  1  0
 10 37  1  0
 11 38  1  0
 11 39  1  0
 15 40  1  0
 16 41  1  0
 16 42  1  0
 16 43  1  0
 17 44  1  0
 18 45  1  0
 18 46  1  0
 19 47  1  0
 19 48  1  0
 20 49  1  0
 20 50  1  0
 21 51  1  0
 21 52  1  0
 22 53  1  0
 22 54  1  0
M  END
>  <Energy>  (778) 
553.88840771026923

>  <compound_id>  (778) 
46716

>  <target_id>  (778) 
1

>  <reference_id>  (778) 
44

>  <inspiration_ids>  (778) 
[27, 44]

>  <energy_score>  (778) 
509.9654479861109

>  <distance_score>  (778) 
7.778231763637328

>  <path>  (778) 
/opt/xchem-fragalysis-2/maxwin/BulkDock/SCRATCH/511023/C46716-P44/C46716-P44.minimised.mol

>  <scratch_subdir>  (778) 
/opt/xchem-fragalysis-2/maxwin/BulkDock/SCRATCH/511023/C46716-P44

>  <fragmenstein_runtime>  (778) 
15.379569292068481

>  <fragmenstein_outcome>  (778) 
too moved

>  <fragmenstein_mode>  (778) 
expansion

>  <fragmenstein_error>  (778) 


$$$$
C46720-P27
     RDKit          3D

 57 58  0  0  0  0  0  0  0  0999 V2000
   14.7572    0.5110   17.4351 C   0  0  0  0  0  0  0  0  0  0  0  0
   14.0001   -0.7519   17.8289 C   0  0  0  0  0  0  0  0  0  0  0  0
   14.5196   -2.0401   17.1775 C   0  0  0  0  0  0  0  0  0  0  0  0
   14.5213   -1.9337   15.6291 C   0  0  0  0  0  0  0  0  0  0  0  0
   13.1673   -1.6320   14.9868 C   0  0  0  0  0  0  0  0  0  0  0  0
   13.8147   -3.3665   17.6432 C   0  0  0  0  0  0  0  0  0  0  0  0
   13.3492   -4.0730   16.7978 O   0  0  0  0  0  0  0  0  0  0  0  0
   13.9338   -3.5584   19.0628 N   0  0  0  0  0  0  0  0  0  0  0  0
   13.6185   -4.6969   19.8932 C   0  0  0  0  0  0  0  0  0  0  0  0
   13.9906   -4.7005   21.3396 C   0  0  0  0  0  0  0  0  0  0  0  0
   12.8508   -5.5977   21.7678 C   0  0  0  0  0  0  0  0  0  0  0  0
   11.5770   -5.1963   20.3177 C   0  0  0  0  0  0  0  0  0  0  0  0
    9.9285   -5.2692   20.5289 N   0  0  0  0  0  0  0  0  0  0  0  0
    8.6271   -3.8704   20.5259 C   0  0  0  0  0  0  0  0  0  0  0  0
    9.1389   -2.9805   20.1909 O   0  0  0  0  0  0  0  0  0  0  0  0
    6.6908   -3.2123   21.1345 C   0  0  0  0  0  0  0  0  0  0  0  0
    5.4825   -1.7866   22.0499 C   0  0  0  0  0  0  0  0  0  0  0  0
    4.8703   -0.0132   22.7909 C   0  0  0  0  0  0  0  0  0  0  0  0
    3.4038    1.5090   22.7462 C   0  0  0  0  0  0  0  0  0  0  0  0
    2.7340    1.5539   24.4308 C   0  0  0  0  0  0  0  0  0  0  0  0
    3.4246    0.3233   25.3425 C   0  0  0  0  0  0  0  0  0  0  0  0
    4.1102   -0.8305   24.4569 C   0  0  0  0  0  0  0  0  0  0  0  0
   11.8264   -5.3984   19.8729 C   0  0  0  0  0  0  0  0  0  0  0  0
   15.8307    0.3962   17.6146 H   0  0  0  0  0  0  0  0  0  0  0  0
   14.6048    0.7674   16.3831 H   0  0  0  0  0  0  0  0  0  0  0  0
   14.4029    1.3585   18.0313 H   0  0  0  0  0  0  0  0  0  0  0  0
   12.9471   -0.6123   17.5713 H   0  0  0  0  0  0  0  0  0  0  0  0
   14.0649   -0.8340   18.9182 H   0  0  0  0  0  0  0  0  0  0  0  0
   15.5710   -2.1659   17.4756 H   0  0  0  0  0  0  0  0  0  0  0  0
   14.9168   -2.8656   15.2122 H   0  0  0  0  0  0  0  0  0  0  0  0
   15.2336   -1.1612   15.3156 H   0  0  0  0  0  0  0  0  0  0  0  0
   12.3982   -2.3516   15.2787 H   0  0  0  0  0  0  0  0  0  0  0  0
   12.8145   -0.6304   15.2484 H   0  0  0  0  0  0  0  0  0  0  0  0
   13.2603   -1.6694   13.8961 H   0  0  0  0  0  0  0  0  0  0  0  0
   14.4583   -2.7863   19.4573 H   0  0  0  0  0  0  0  0  0  0  0  0
   14.1641   -5.5116   19.3986 H   0  0  0  0  0  0  0  0  0  0  0  0
   13.9061   -3.7060   21.7882 H   0  0  0  0  0  0  0  0  0  0  0  0
   14.9782   -5.1156   21.5520 H   0  0  0  0  0  0  0  0  0  0  0  0
   12.4759   -5.2988   22.7572 H   0  0  0  0  0  0  0  0  0  0  0  0
   13.1102   -6.6658   21.7781 H   0  0  0  0  0  0  0  0  0  0  0  0
   11.9455   -3.7925   20.3725 H   0  0  0  0  0  0  0  0  0  0  0  0
   11.4506   -4.4650   21.3495 H   0  0  0  0  0  0  0  0  0  0  0  0
    7.0192   -3.6982   22.2618 H   0  0  0  0  0  0  0  0  0  0  0  0
    5.8330   -3.4396   20.4083 H   0  0  0  0  0  0  0  0  0  0  0  0
    6.1176   -1.2106   21.4243 H   0  0  0  0  0  0  0  0  0  0  0  0
    5.5732   -2.1251   23.0732 H   0  0  0  0  0  0  0  0  0  0  0  0
    4.6295    0.1273   21.7589 H   0  0  0  0  0  0  0  0  0  0  0  0
    2.7081    1.3971   21.8903 H   0  0  0  0  0  0  0  0  0  0  0  0
    3.4497    2.6131   22.6547 H   0  0  0  0  0  0  0  0  0  0  0  0
    1.6686    1.7534   24.4815 H   0  0  0  0  0  0  0  0  0  0  0  0
    2.9792    2.5315   24.8964 H   0  0  0  0  0  0  0  0  0  0  0  0
    2.7451   -0.1219   26.0767 H   0  0  0  0  0  0  0  0  0  0  0  0
    4.1929    0.7411   26.0094 H   0  0  0  0  0  0  0  0  0  0  0  0
    3.4324   -1.6676   24.2056 H   0  0  0  0  0  0  0  0  0  0  0  0
    4.7983   -1.4145   25.1013 H   0  0  0  0  0  0  0  0  0  0  0  0
   11.8186   -5.1327   18.6208 H   0  0  0  0  0  0  0  0  0  0  0  0
   12.2745   -6.6550   20.1128 H   0  0  0  0  0  0  0  0  0  0  0  0
  1  2  1  0
  2  3  1  0
  3  4  1  0
  4  5  1  0
  3  6  1  0
  6  7  2  0
  6  8  1  0
  8  9  1  0
  9 10  1  0
 10 11  1  0
 11 12  1  0
 12 13  1  0
 13 14  1  0
 14 15  2  0
 14 16  1  0
 16 17  1  0
 17 18  1  0
 18 19  1  0
 19 20  1  0
 20 21  1  0
 21 22  1  0
 13 23  1  0
 23  9  1  0
 22 18  1  0
  1 24  1  0
  1 25  1  0
  1 26  1  0
  2 27  1  0
  2 28  1  0
  3 29  1  0
  4 30  1  0
  4 31  1  0
  5 32  1  0
  5 33  1  0
  5 34  1  0
  8 35  1  0
  9 36  1  0
 10 37  1  0
 10 38  1  0
 11 39  1  0
 11 40  1  0
 12 41  1  0
 12 42  1  0
 16 43  1  0
 16 44  1  0
 17 45  1  0
 17 46  1  0
 18 47  1  0
 19 48  1  0
 19 49  1  0
 20 50  1  0
 20 51  1  0
 21 52  1  0
 21 53  1  0
 22 54  1  0
 22 55  1  0
 23 56  1  0
 23 57  1  0
M  END
>  <Energy>  (779) 
1713.7487088516939

>  <compound_id>  (779) 
46720

>  <target_id>  (779) 
1

>  <reference_id>  (779) 
27

>  <inspiration_ids>  (779) 
[27, 44]

>  <energy_score>  (779) 
1668.9545596588823

>  <distance_score>  (779) 
5.04951930520146

>  <path>  (779) 
/opt/xchem-fragalysis-2/maxwin/BulkDock/SCRATCH/511023/C46720-P27/C46720-P27.minimised.mol

>  <scratch_subdir>  (779) 
/opt/xchem-fragalysis-2/maxwin/BulkDock/SCRATCH/511023/C46720-P27

>  <fragmenstein_runtime>  (779) 
17.188427209854126

>  <fragmenstein_outcome>  (779) 
too moved

>  <fragmenstein_mode>  (779) 
expansion

>  <fragmenstein_error>  (779) 


$$$$
C46720-P44
     RDKit          3D

 57 58  0  0  0  0  0  0  0  0999 V2000
   16.0362    1.9894   20.7595 C   0  0  0  0  0  0  0  0  0  0  0  0
   15.2966    0.6781   20.5395 C   0  0  0  0  0  0  0  0  0  0  0  0
   14.8795   -0.0545   21.8414 C   0  0  0  0  0  0  0  0  0  0  0  0
   14.4323   -1.5177   21.5775 C   0  0  0  0  0  0  0  0  0  0  0  0
   14.8454   -2.1908   20.2701 C   0  0  0  0  0  0  0  0  0  0  0  0
   13.7861    0.7623   22.6433 C   0  0  0  0  0  0  0  0  0  0  0  0
   13.3285    1.7474   22.1391 O   0  0  0  0  0  0  0  0  0  0  0  0
   13.5813    0.1952   23.9536 N   0  0  0  0  0  0  0  0  0  0  0  0
   12.8334    0.6901   25.1034 C   0  0  0  0  0  0  0  0  0  0  0  0
   12.9736    2.1790   25.2854 C   0  0  0  0  0  0  0  0  0  0  0  0
   11.5133    2.5314   25.3296 C   0  0  0  0  0  0  0  0  0  0  0  0
   10.7266    0.8898   25.6710 C   0  0  0  0  0  0  0  0  0  0  0  0
    9.5639    1.3072   26.0680 N   0  0  0  0  0  0  0  0  0  0  0  0
    8.1493    0.6288   26.2900 C   0  0  0  0  0  0  0  0  0  0  0  0
    7.7466   -0.4305   26.0470 O   0  0  0  0  0  0  0  0  0  0  0  0
    7.2316    1.7015   26.9414 C   0  0  0  0  0  0  0  0  0  0  0  0
    5.8710    1.8857   26.2021 C   0  0  0  0  0  0  0  0  0  0  0  0
    4.6679    2.2708   27.0842 C   0  0  0  0  0  0  0  0  0  0  0  0
    4.0736    1.1012   27.8880 C   0  0  0  0  0  0  0  0  0  0  0  0
    2.5497    1.2625   27.8496 C   0  0  0  0  0  0  0  0  0  0  0  0
    2.2972    2.6166   27.2079 C   0  0  0  0  0  0  0  0  0  0  0  0
    3.4758    2.7802   26.2622 C   0  0  0  0  0  0  0  0  0  0  0  0
   11.0283    0.4603   25.0531 C   0  0  0  0  0  0  0  0  0  0  0  0
   16.9409    1.8287   21.3547 H   0  0  0  0  0  0  0  0  0  0  0  0
   16.3386    2.4149   19.7969 H   0  0  0  0  0  0  0  0  0  0  0  0
   15.4217    2.7349   21.2700 H   0  0  0  0  0  0  0  0  0  0  0  0
   15.9670    0.0489   19.9459 H   0  0  0  0  0  0  0  0  0  0  0  0
   14.4195    0.8905   19.9333 H   0  0  0  0  0  0  0  0  0  0  0  0
   15.7684   -0.0901   22.4871 H   0  0  0  0  0  0  0  0  0  0  0  0
   13.3543   -1.5971   21.6675 H   0  0  0  0  0  0  0  0  0  0  0  0
   14.8219   -2.1342   22.3990 H   0  0  0  0  0  0  0  0  0  0  0  0
   15.9355   -2.2373   20.1834 H   0  0  0  0  0  0  0  0  0  0  0  0
   14.4419   -1.6794   19.3953 H   0  0  0  0  0  0  0  0  0  0  0  0
   14.4703   -3.2197   20.2502 H   0  0  0  0  0  0  0  0  0  0  0  0
   14.0664   -0.6922   24.0089 H   0  0  0  0  0  0  0  0  0  0  0  0
   13.1973    0.1408   25.9824 H   0  0  0  0  0  0  0  0  0  0  0  0
   13.5097    2.7235   24.5058 H   0  0  0  0  0  0  0  0  0  0  0  0
   13.4546    2.4029   26.2436 H   0  0  0  0  0  0  0  0  0  0  0  0
   11.2435    3.2620   26.1034 H   0  0  0  0  0  0  0  0  0  0  0  0
   11.1303    2.8851   24.3617 H   0  0  0  0  0  0  0  0  0  0  0  0
   10.8513    0.0041   26.6781 H   0  0  0  0  0  0  0  0  0  0  0  0
   11.2062    1.3051   26.7300 H   0  0  0  0  0  0  0  0  0  0  0  0
    7.0580    1.3658   27.9706 H   0  0  0  0  0  0  0  0  0  0  0  0
    7.7475    2.6660   26.9971 H   0  0  0  0  0  0  0  0  0  0  0  0
    6.0206    2.6794   25.4595 H   0  0  0  0  0  0  0  0  0  0  0  0
    5.6220    0.9805   25.6352 H   0  0  0  0  0  0  0  0  0  0  0  0
    4.9727    3.0635   27.7805 H   0  0  0  0  0  0  0  0  0  0  0  0
    4.3555    0.1279   27.4706 H   0  0  0  0  0  0  0  0  0  0  0  0
    4.4418    1.1270   28.9197 H   0  0  0  0  0  0  0  0  0  0  0  0
    2.1027    1.1914   28.8459 H   0  0  0  0  0  0  0  0  0  0  0  0
    2.1133    0.4673   27.2338 H   0  0  0  0  0  0  0  0  0  0  0  0
    2.3106    3.4047   27.9699 H   0  0  0  0  0  0  0  0  0  0  0  0
    1.3355    2.6582   26.6887 H   0  0  0  0  0  0  0  0  0  0  0  0
    3.6085    3.8198   25.9474 H   0  0  0  0  0  0  0  0  0  0  0  0
    3.3297    2.1674   25.3640 H   0  0  0  0  0  0  0  0  0  0  0  0
   10.8467   -0.7472   24.9365 H   0  0  0  0  0  0  0  0  0  0  0  0
   10.7529    0.6901   23.8842 H   0  0  0  0  0  0  0  0  0  0  0  0
  1  2  1  0
  2  3  1  0
  3  4  1  0
  4  5  1  0
  3  6  1  0
  6  7  2  0
  6  8  1  0
  8  9  1  0
  9 10  1  0
 10 11  1  0
 11 12  1  0
 12 13  1  0
 13 14  1  0
 14 15  2  0
 14 16  1  0
 16 17  1  0
 17 18  1  0
 18 19  1  0
 19 20  1  0
 20 21  1  0
 21 22  1  0
 13 23  1  0
 23  9  1  0
 22 18  1  0
  1 24  1  0
  1 25  1  0
  1 26  1  0
  2 27  1  0
  2 28  1  0
  3 29  1  0
  4 30  1  0
  4 31  1  0
  5 32  1  0
  5 33  1  0
  5 34  1  0
  8 35  1  0
  9 36  1  0
 10 37  1  0
 10 38  1  0
 11 39  1  0
 11 40  1  0
 12 41  1  0
 12 42  1  0
 16 43  1  0
 16 44  1  0
 17 45  1  0
 17 46  1  0
 18 47  1  0
 19 48  1  0
 19 49  1  0
 20 50  1  0
 20 51  1  0
 21 52  1  0
 21 53  1  0
 22 54  1  0
 22 55  1  0
 23 56  1  0
 23 57  1  0
M  END
>  <Energy>  (780) 
799.80136089893017

>  <compound_id>  (780) 
46720

>  <target_id>  (780) 
1

>  <reference_id>  (780) 
44

>  <inspiration_ids>  (780) 
[27, 44]

>  <energy_score>  (780) 
755.007211706107

>  <distance_score>  (780) 
7.292066235528114

>  <path>  (780) 
/opt/xchem-fragalysis-2/maxwin/BulkDock/SCRATCH/511023/C46720-P44/C46720-P44.minimised.mol

>  <scratch_subdir>  (780) 
/opt/xchem-fragalysis-2/maxwin/BulkDock/SCRATCH/511023/C46720-P44

>  <fragmenstein_runtime>  (780) 
19.530744314193726

>  <fragmenstein_outcome>  (780) 
too moved

>  <fragmenstein_mode>  (780) 
expansion

>  <fragmenstein_error>  (780) 


$$$$
C46722-P27
     RDKit          3D

 54 55  0  0  0  0  0  0  0  0999 V2000
   13.6918    3.2538   20.7994 C   0  0  0  0  0  0  0  0  0  0  0  0
   14.2941    2.8591   22.1455 C   0  0  0  0  0  0  0  0  0  0  0  0
   13.8577    1.4779   22.6884 C   0  0  0  0  0  0  0  0  0  0  0  0
   14.1789    0.3986   21.6173 C   0  0  0  0  0  0  0  0  0  0  0  0
   14.5243   -0.9594   22.2053 C   0  0  0  0  0  0  0  0  0  0  0  0
   12.3507    1.5628   23.1381 C   0  0  0  0  0  0  0  0  0  0  0  0
   11.5018    1.3217   22.3327 O   0  0  0  0  0  0  0  0  0  0  0  0
   12.2480    2.0322   24.5038 N   0  0  0  0  0  0  0  0  0  0  0  0
   11.0835    2.4491   25.2907 C   0  0  0  0  0  0  0  0  0  0  0  0
   10.0741    1.4099   25.5687 C   0  0  0  0  0  0  0  0  0  0  0  0
    9.7289    2.4807   27.2355 N   0  0  0  0  0  0  0  0  0  0  0  0
    8.4616    3.0555   27.0976 C   0  0  0  0  0  0  0  0  0  0  0  0
    8.2445    4.1573   26.6098 O   0  0  0  0  0  0  0  0  0  0  0  0
    7.3289    2.2127   27.7312 C   0  0  0  0  0  0  0  0  0  0  0  0
    5.9581    2.9474   27.7375 C   0  0  0  0  0  0  0  0  0  0  0  0
    4.8967    2.4202   28.7452 C   0  0  0  0  0  0  0  0  0  0  0  0
    3.7068    3.4003   28.8780 C   0  0  0  0  0  0  0  0  0  0  0  0
    2.7012    3.3118   27.7311 C   0  0  0  0  0  0  0  0  0  0  0  0
    2.1709    1.8931   27.5757 C   0  0  0  0  0  0  0  0  0  0  0  0
    3.3108    0.9007   27.3778 C   0  0  0  0  0  0  0  0  0  0  0  0
    4.3783    0.9969   28.4691 C   0  0  0  0  0  0  0  0  0  0  0  0
   10.5836    1.6399   26.4389 C   0  0  0  0  0  0  0  0  0  0  0  0
   14.0863    4.2270   20.4889 H   0  0  0  0  0  0  0  0  0  0  0  0
   12.6089    3.3516   20.8852 H   0  0  0  0  0  0  0  0  0  0  0  0
   13.9236    2.5363   20.0084 H   0  0  0  0  0  0  0  0  0  0  0  0
   14.0426    3.6361   22.8779 H   0  0  0  0  0  0  0  0  0  0  0  0
   15.3873    2.8701   22.0496 H   0  0  0  0  0  0  0  0  0  0  0  0
   14.4660    1.2626   23.5765 H   0  0  0  0  0  0  0  0  0  0  0  0
   15.0473    0.7073   21.0216 H   0  0  0  0  0  0  0  0  0  0  0  0
   13.3564    0.2786   20.9204 H   0  0  0  0  0  0  0  0  0  0  0  0
   15.5112   -0.9251   22.6797 H   0  0  0  0  0  0  0  0  0  0  0  0
   13.8100   -1.2685   22.9728 H   0  0  0  0  0  0  0  0  0  0  0  0
   14.5580   -1.7223   21.4215 H   0  0  0  0  0  0  0  0  0  0  0  0
   13.1799    2.2077   24.8642 H   0  0  0  0  0  0  0  0  0  0  0  0
   10.7294    3.4683   25.1326 H   0  0  0  0  0  0  0  0  0  0  0  0
    9.9530    0.2400   25.4767 H   0  0  0  0  0  0  0  0  0  0  0  0
    9.1526    1.6704   24.9472 H   0  0  0  0  0  0  0  0  0  0  0  0
    7.6263    2.0034   28.7657 H   0  0  0  0  0  0  0  0  0  0  0  0
    7.2515    1.2581   27.2034 H   0  0  0  0  0  0  0  0  0  0  0  0
    6.1452    4.0005   27.9863 H   0  0  0  0  0  0  0  0  0  0  0  0
    5.5350    2.9548   26.7293 H   0  0  0  0  0  0  0  0  0  0  0  0
    5.3984    2.3981   29.7227 H   0  0  0  0  0  0  0  0  0  0  0  0
    4.0718    4.4302   28.9674 H   0  0  0  0  0  0  0  0  0  0  0  0
    3.1815    3.1802   29.8170 H   0  0  0  0  0  0  0  0  0  0  0  0
    1.8665    3.9954   27.9233 H   0  0  0  0  0  0  0  0  0  0  0  0
    3.1716    3.6378   26.7960 H   0  0  0  0  0  0  0  0  0  0  0  0
    1.5950    1.6156   28.4669 H   0  0  0  0  0  0  0  0  0  0  0  0
    1.4839    1.8475   26.7241 H   0  0  0  0  0  0  0  0  0  0  0  0
    3.7783    1.0708   26.4063 H   0  0  0  0  0  0  0  0  0  0  0  0
    2.9070   -0.1182   27.3526 H   0  0  0  0  0  0  0  0  0  0  0  0
    3.9394    0.6117   29.3994 H   0  0  0  0  0  0  0  0  0  0  0  0
    5.2107    0.3264   28.2278 H   0  0  0  0  0  0  0  0  0  0  0  0
   11.5372    1.9153   27.0596 H   0  0  0  0  0  0  0  0  0  0  0  0
   10.9177    0.6191   26.9895 H   0  0  0  0  0  0  0  0  0  0  0  0
  1  2  1  0
  2  3  1  0
  3  4  1  0
  4  5  1  0
  3  6  1  0
  6  7  2  0
  6  8  1  0
  8  9  1  0
  9 10  1  0
 10 11  1  0
 11 12  1  0
 12 13  2  0
 12 14  1  0
 14 15  1  0
 15 16  1  0
 16 17  1  0
 17 18  1  0
 18 19  1  0
 19 20  1  0
 20 21  1  0
 11 22  1  0
 22  9  1  0
 21 16  1  0
  1 23  1  0
  1 24  1  0
  1 25  1  0
  2 26  1  0
  2 27  1  0
  3 28  1  0
  4 29  1  0
  4 30  1  0
  5 31  1  0
  5 32  1  0
  5 33  1  0
  8 34  1  0
  9 35  1  0
 10 36  1  0
 10 37  1  0
 14 38  1  0
 14 39  1  0
 15 40  1  0
 15 41  1  0
 16 42  1  0
 17 43  1  0
 17 44  1  0
 18 45  1  0
 18 46  1  0
 19 47  1  0
 19 48  1  0
 20 49  1  0
 20 50  1  0
 21 51  1  0
 21 52  1  0
 22 53  1  0
 22 54  1  0
M  END
>  <Energy>  (781) 
426.70726667928994

>  <compound_id>  (781) 
46722

>  <target_id>  (781) 
1

>  <reference_id>  (781) 
27

>  <inspiration_ids>  (781) 
[27, 44]

>  <energy_score>  (781) 
368.18463202843

>  <distance_score>  (781) 
8.383583449969423

>  <path>  (781) 
/opt/xchem-fragalysis-2/maxwin/BulkDock/SCRATCH/511023/C46722-P27/C46722-P27.minimised.mol

>  <scratch_subdir>  (781) 
/opt/xchem-fragalysis-2/maxwin/BulkDock/SCRATCH/511023/C46722-P27

>  <fragmenstein_runtime>  (781) 
34.34685516357422

>  <fragmenstein_outcome>  (781) 
too moved

>  <fragmenstein_mode>  (781) 
expansion

>  <fragmenstein_error>  (781) 


$$$$
C46722-P44
     RDKit          3D

 54 55  0  0  0  0  0  0  0  0999 V2000
   15.5491   -0.8287   21.3460 C   0  0  0  0  0  0  0  0  0  0  0  0
   14.2586   -1.2517   22.0389 C   0  0  0  0  0  0  0  0  0  0  0  0
   14.2400   -2.6918   22.6104 C   0  0  0  0  0  0  0  0  0  0  0  0
   14.6527   -3.7425   21.5328 C   0  0  0  0  0  0  0  0  0  0  0  0
   13.8894   -3.7294   20.2097 C   0  0  0  0  0  0  0  0  0  0  0  0
   12.8838   -3.0973   23.3282 C   0  0  0  0  0  0  0  0  0  0  0  0
   12.2615   -4.0207   22.8832 O   0  0  0  0  0  0  0  0  0  0  0  0
   12.5747   -2.1836   24.4160 N   0  0  0  0  0  0  0  0  0  0  0  0
   11.3664   -2.0437   25.2422 C   0  0  0  0  0  0  0  0  0  0  0  0
   11.5168   -2.2842   26.6793 C   0  0  0  0  0  0  0  0  0  0  0  0
    9.6150   -2.9406   26.6251 N   0  0  0  0  0  0  0  0  0  0  0  0
    8.8632   -2.0843   27.4374 C   0  0  0  0  0  0  0  0  0  0  0  0
    8.6635   -2.2738   28.6322 O   0  0  0  0  0  0  0  0  0  0  0  0
    8.1825   -0.9128   26.7065 C   0  0  0  0  0  0  0  0  0  0  0  0
    7.4776    0.1070   27.6412 C   0  0  0  0  0  0  0  0  0  0  0  0
    5.9211    0.2492   27.6134 C   0  0  0  0  0  0  0  0  0  0  0  0
    5.4041    0.9816   26.3610 C   0  0  0  0  0  0  0  0  0  0  0  0
    3.8923    0.8491   26.1299 C   0  0  0  0  0  0  0  0  0  0  0  0
    3.1292    0.5067   27.4000 C   0  0  0  0  0  0  0  0  0  0  0  0
    3.6334   -0.7984   28.0199 C   0  0  0  0  0  0  0  0  0  0  0  0
    5.1399   -1.0506   27.8228 C   0  0  0  0  0  0  0  0  0  0  0  0
   10.9968   -3.0697   26.2417 C   0  0  0  0  0  0  0  0  0  0  0  0
   16.4057   -0.9522   22.0159 H   0  0  0  0  0  0  0  0  0  0  0  0
   15.7373   -1.4022   20.4350 H   0  0  0  0  0  0  0  0  0  0  0  0
   15.4913    0.2272   21.0620 H   0  0  0  0  0  0  0  0  0  0  0  0
   13.4530   -1.1252   21.3249 H   0  0  0  0  0  0  0  0  0  0  0  0
   14.0644   -0.5310   22.8404 H   0  0  0  0  0  0  0  0  0  0  0  0
   15.0012   -2.7489   23.4020 H   0  0  0  0  0  0  0  0  0  0  0  0
   14.5615   -4.7461   21.9683 H   0  0  0  0  0  0  0  0  0  0  0  0
   15.7201   -3.6177   21.3117 H   0  0  0  0  0  0  0  0  0  0  0  0
   14.2505   -4.5397   19.5674 H   0  0  0  0  0  0  0  0  0  0  0  0
   12.8258   -3.8932   20.3769 H   0  0  0  0  0  0  0  0  0  0  0  0
   14.0292   -2.7944   19.6633 H   0  0  0  0  0  0  0  0  0  0  0  0
   13.2915   -1.4716   24.4625 H   0  0  0  0  0  0  0  0  0  0  0  0
   10.7034   -1.2230   24.9826 H   0  0  0  0  0  0  0  0  0  0  0  0
   12.3349   -2.7060   27.4163 H   0  0  0  0  0  0  0  0  0  0  0  0
   11.3841   -1.2842   27.2221 H   0  0  0  0  0  0  0  0  0  0  0  0
    7.4689   -1.3314   25.9924 H   0  0  0  0  0  0  0  0  0  0  0  0
    8.9548   -0.3819   26.1412 H   0  0  0  0  0  0  0  0  0  0  0  0
    7.7683   -0.0742   28.6829 H   0  0  0  0  0  0  0  0  0  0  0  0
    7.8883    1.0984   27.4040 H   0  0  0  0  0  0  0  0  0  0  0  0
    5.6849    0.8994   28.4694 H   0  0  0  0  0  0  0  0  0  0  0  0
    5.9179    0.6060   25.4717 H   0  0  0  0  0  0  0  0  0  0  0  0
    5.6665    2.0439   26.4413 H   0  0  0  0  0  0  0  0  0  0  0  0
    3.5044    1.7735   25.6876 H   0  0  0  0  0  0  0  0  0  0  0  0
    3.7213    0.0560   25.3926 H   0  0  0  0  0  0  0  0  0  0  0  0
    3.2479    1.3236   28.1227 H   0  0  0  0  0  0  0  0  0  0  0  0
    2.0563    0.4264   27.1935 H   0  0  0  0  0  0  0  0  0  0  0  0
    3.0810   -1.6471   27.5989 H   0  0  0  0  0  0  0  0  0  0  0  0
    3.4013   -0.7877   29.0919 H   0  0  0  0  0  0  0  0  0  0  0  0
    5.5296   -1.5995   28.6880 H   0  0  0  0  0  0  0  0  0  0  0  0
    5.2777   -1.7044   26.9524 H   0  0  0  0  0  0  0  0  0  0  0  0
   11.4952   -4.1150   26.5829 H   0  0  0  0  0  0  0  0  0  0  0  0
   10.7368   -3.8247   25.3878 H   0  0  0  0  0  0  0  0  0  0  0  0
  1  2  1  0
  2  3  1  0
  3  4  1  0
  4  5  1  0
  3  6  1  0
  6  7  2  0
  6  8  1  0
  8  9  1  0
  9 10  1  0
 10 11  1  0
 11 12  1  0
 12 13  2  0
 12 14  1  0
 14 15  1  0
 15 16  1  0
 16 17  1  0
 17 18  1  0
 18 19  1  0
 19 20  1  0
 20 21  1  0
 11 22  1  0
 22  9  1  0
 21 16  1  0
  1 23  1  0
  1 24  1  0
  1 25  1  0
  2 26  1  0
  2 27  1  0
  3 28  1  0
  4 29  1  0
  4 30  1  0
  5 31  1  0
  5 32  1  0
  5 33  1  0
  8 34  1  0
  9 35  1  0
 10 36  1  0
 10 37  1  0
 14 38  1  0
 14 39  1  0
 15 40  1  0
 15 41  1  0
 16 42  1  0
 17 43  1  0
 17 44  1  0
 18 45  1  0
 18 46  1  0
 19 47  1  0
 19 48  1  0
 20 49  1  0
 20 50  1  0
 21 51  1  0
 21 52  1  0
 22 53  1  0
 22 54  1  0
M  END
>  <Energy>  (782) 
436.7136110966473

>  <compound_id>  (782) 
46722

>  <target_id>  (782) 
1

>  <reference_id>  (782) 
44

>  <inspiration_ids>  (782) 
[27, 44]

>  <energy_score>  (782) 
378.1909764457909

>  <distance_score>  (782) 
7.5368925802028235

>  <path>  (782) 
/opt/xchem-fragalysis-2/maxwin/BulkDock/SCRATCH/511023/C46722-P44/C46722-P44.minimised.mol

>  <scratch_subdir>  (782) 
/opt/xchem-fragalysis-2/maxwin/BulkDock/SCRATCH/511023/C46722-P44

>  <fragmenstein_runtime>  (782) 
30.611970901489258

>  <fragmenstein_outcome>  (782) 
too moved

>  <fragmenstein_mode>  (782) 
expansion

>  <fragmenstein_error>  (782) 


$$$$
C46723-P27
     RDKit          3D

 60 61  0  0  0  0  0  0  0  0999 V2000
   15.0723    2.9200   17.3470 C   0  0  0  0  0  0  0  0  0  0  0  0
   14.3365    3.0065   18.6773 C   0  0  0  0  0  0  0  0  0  0  0  0
   14.7081    1.9060   19.7057 C   0  0  0  0  0  0  0  0  0  0  0  0
   14.4698    0.5223   19.0501 C   0  0  0  0  0  0  0  0  0  0  0  0
   14.6730   -0.6952   19.9262 C   0  0  0  0  0  0  0  0  0  0  0  0
   13.9526    2.2087   21.0616 C   0  0  0  0  0  0  0  0  0  0  0  0
   12.9947    2.9211   21.0510 O   0  0  0  0  0  0  0  0  0  0  0  0
   14.6107    1.5451   22.1476 N   0  0  0  0  0  0  0  0  0  0  0  0
   14.3777    1.6058   23.6063 C   0  0  0  0  0  0  0  0  0  0  0  0
   15.3012    0.5460   24.2501 C   0  0  0  0  0  0  0  0  0  0  0  0
   14.7287   -0.8503   24.0216 C   0  0  0  0  0  0  0  0  0  0  0  0
   13.2581   -0.8834   24.4238 C   0  0  0  0  0  0  0  0  0  0  0  0
   12.4247    0.5495   23.8115 C   0  0  0  0  0  0  0  0  0  0  0  0
   11.8755    1.9486   25.0299 N   0  0  0  0  0  0  0  0  0  0  0  0
   10.3034    2.3773   25.1956 C   0  0  0  0  0  0  0  0  0  0  0  0
    9.3510    2.0739   24.6286 O   0  0  0  0  0  0  0  0  0  0  0  0
   10.2706    3.3019   26.4442 C   0  0  0  0  0  0  0  0  0  0  0  0
   10.9437    4.6316   26.0941 C   0  0  0  0  0  0  0  0  0  0  0  0
    8.8581    3.5585   27.0917 C   0  0  0  0  0  0  0  0  0  0  0  0
    8.0725    2.3174   27.5357 C   0  0  0  0  0  0  0  0  0  0  0  0
    6.6415    2.8062   27.7786 C   0  0  0  0  0  0  0  0  0  0  0  0
    6.5019    4.1285   27.0251 C   0  0  0  0  0  0  0  0  0  0  0  0
    7.8248    4.3531   26.2868 C   0  0  0  0  0  0  0  0  0  0  0  0
   12.5955    1.2249   24.1500 C   0  0  0  0  0  0  0  0  0  0  0  0
   14.7403    2.0625   16.7546 H   0  0  0  0  0  0  0  0  0  0  0  0
   16.1535    2.8464   17.4991 H   0  0  0  0  0  0  0  0  0  0  0  0
   14.8749    3.8188   16.7534 H   0  0  0  0  0  0  0  0  0  0  0  0
   13.2583    2.9857   18.4771 H   0  0  0  0  0  0  0  0  0  0  0  0
   14.5475    3.9876   19.1223 H   0  0  0  0  0  0  0  0  0  0  0  0
   15.7823    2.0065   19.9147 H   0  0  0  0  0  0  0  0  0  0  0  0
   13.4731    0.4838   18.6056 H   0  0  0  0  0  0  0  0  0  0  0  0
   15.1694    0.4118   18.2123 H   0  0  0  0  0  0  0  0  0  0  0  0
   15.6850   -0.7134   20.3425 H   0  0  0  0  0  0  0  0  0  0  0  0
   13.9584   -0.7163   20.7498 H   0  0  0  0  0  0  0  0  0  0  0  0
   14.5373   -1.6111   19.3419 H   0  0  0  0  0  0  0  0  0  0  0  0
   15.4450    1.0889   21.7982 H   0  0  0  0  0  0  0  0  0  0  0  0
   14.6044    2.6227   23.9506 H   0  0  0  0  0  0  0  0  0  0  0  0
   15.3742    0.7332   25.3285 H   0  0  0  0  0  0  0  0  0  0  0  0
   16.3200    0.6089   23.8504 H   0  0  0  0  0  0  0  0  0  0  0  0
   15.2937   -1.5943   24.5930 H   0  0  0  0  0  0  0  0  0  0  0  0
   14.8219   -1.1225   22.9653 H   0  0  0  0  0  0  0  0  0  0  0  0
   12.7660   -1.7715   24.0149 H   0  0  0  0  0  0  0  0  0  0  0  0
   13.1371   -0.9067   25.5151 H   0  0  0  0  0  0  0  0  0  0  0  0
   11.3406   -0.0350   23.8804 H   0  0  0  0  0  0  0  0  0  0  0  0
   12.2613    0.5881   22.5652 H   0  0  0  0  0  0  0  0  0  0  0  0
   10.8733    2.8003   27.2139 H   0  0  0  0  0  0  0  0  0  0  0  0
   11.9892    4.4869   25.8027 H   0  0  0  0  0  0  0  0  0  0  0  0
   10.9331    5.3143   26.9501 H   0  0  0  0  0  0  0  0  0  0  0  0
   10.4386    5.1223   25.2551 H   0  0  0  0  0  0  0  0  0  0  0  0
    9.0530    4.1418   28.0056 H   0  0  0  0  0  0  0  0  0  0  0  0
    8.0804    1.5375   26.7714 H   0  0  0  0  0  0  0  0  0  0  0  0
    8.4998    1.8766   28.4427 H   0  0  0  0  0  0  0  0  0  0  0  0
    6.4710    2.9685   28.8490 H   0  0  0  0  0  0  0  0  0  0  0  0
    5.9082    2.0657   27.4434 H   0  0  0  0  0  0  0  0  0  0  0  0
    5.6537    4.1195   26.3333 H   0  0  0  0  0  0  0  0  0  0  0  0
    6.3299    4.9421   27.7397 H   0  0  0  0  0  0  0  0  0  0  0  0
    7.7563    3.9972   25.2559 H   0  0  0  0  0  0  0  0  0  0  0  0
    8.0727    5.4187   26.2434 H   0  0  0  0  0  0  0  0  0  0  0  0
   12.4240    2.2812   23.4919 H   0  0  0  0  0  0  0  0  0  0  0  0
   13.2532    1.2854   25.2029 H   0  0  0  0  0  0  0  0  0  0  0  0
  1  2  1  0
  2  3  1  0
  3  4  1  0
  4  5  1  0
  3  6  1  0
  6  7  2  0
  6  8  1  0
  8  9  1  0
  9 10  1  0
 10 11  1  0
 11 12  1  0
 12 13  1  0
 13 14  1  0
 14 15  1  0
 15 16  2  0
 15 17  1  0
 17 18  1  0
 17 19  1  0
 19 20  1  0
 20 21  1  0
 21 22  1  0
 22 23  1  0
 14 24  1  0
 24  9  1  0
 23 19  1  0
  1 25  1  0
  1 26  1  0
  1 27  1  0
  2 28  1  0
  2 29  1  0
  3 30  1  0
  4 31  1  0
  4 32  1  0
  5 33  1  0
  5 34  1  0
  5 35  1  0
  8 36  1  0
  9 37  1  0
 10 38  1  0
 10 39  1  0
 11 40  1  0
 11 41  1  0
 12 42  1  0
 12 43  1  0
 13 44  1  0
 13 45  1  0
 17 46  1  0
 18 47  1  0
 18 48  1  0
 18 49  1  0
 19 50  1  0
 20 51  1  0
 20 52  1  0
 21 53  1  0
 21 54  1  0
 22 55  1  0
 22 56  1  0
 23 57  1  0
 23 58  1  0
 24 59  1  0
 24 60  1  0
M  END
>  <Energy>  (783) 
771.53876602577486

>  <compound_id>  (783) 
46723

>  <target_id>  (783) 
1

>  <reference_id>  (783) 
27

>  <inspiration_ids>  (783) 
[27, 44]

>  <energy_score>  (783) 
696.8453305050716

>  <distance_score>  (783) 
7.779156531076199

>  <path>  (783) 
/opt/xchem-fragalysis-2/maxwin/BulkDock/SCRATCH/511023/C46723-P27/C46723-P27.minimised.mol

>  <scratch_subdir>  (783) 
/opt/xchem-fragalysis-2/maxwin/BulkDock/SCRATCH/511023/C46723-P27

>  <fragmenstein_runtime>  (783) 
21.798855304718018

>  <fragmenstein_outcome>  (783) 
too moved

>  <fragmenstein_mode>  (783) 
expansion

>  <fragmenstein_error>  (783) 


$$$$
C46723-P44
     RDKit          3D

 60 61  0  0  0  0  0  0  0  0999 V2000
   16.0413   -1.0875   18.0875 C   0  0  0  0  0  0  0  0  0  0  0  0
   15.5968   -1.2785   19.5295 C   0  0  0  0  0  0  0  0  0  0  0  0
   14.9059   -2.6259   19.8975 C   0  0  0  0  0  0  0  0  0  0  0  0
   13.8503   -3.0407   18.8359 C   0  0  0  0  0  0  0  0  0  0  0  0
   14.3946   -3.9343   17.7303 C   0  0  0  0  0  0  0  0  0  0  0  0
   14.4099   -2.5198   21.4127 C   0  0  0  0  0  0  0  0  0  0  0  0
   14.7916   -1.5932   22.0685 O   0  0  0  0  0  0  0  0  0  0  0  0
   13.5942   -3.6447   21.7692 N   0  0  0  0  0  0  0  0  0  0  0  0
   13.0536   -4.0667   23.0563 C   0  0  0  0  0  0  0  0  0  0  0  0
   14.0389   -4.9682   23.7848 C   0  0  0  0  0  0  0  0  0  0  0  0
   13.3539   -5.4407   25.0549 C   0  0  0  0  0  0  0  0  0  0  0  0
   12.6111   -4.3095   25.7966 C   0  0  0  0  0  0  0  0  0  0  0  0
   11.9256   -2.9900   24.6115 C   0  0  0  0  0  0  0  0  0  0  0  0
   11.0182   -2.1905   25.2150 N   0  0  0  0  0  0  0  0  0  0  0  0
    9.9869   -2.7796   26.4062 C   0  0  0  0  0  0  0  0  0  0  0  0
    9.9237   -3.7884   26.9531 O   0  0  0  0  0  0  0  0  0  0  0  0
    8.9915   -1.5616   26.6025 C   0  0  0  0  0  0  0  0  0  0  0  0
    9.7111   -0.4300   27.3351 C   0  0  0  0  0  0  0  0  0  0  0  0
    7.5744   -1.9177   27.1980 C   0  0  0  0  0  0  0  0  0  0  0  0
    6.4095   -1.1805   26.4851 C   0  0  0  0  0  0  0  0  0  0  0  0
    5.3007   -1.0543   27.5186 C   0  0  0  0  0  0  0  0  0  0  0  0
    6.0757   -0.7350   28.7790 C   0  0  0  0  0  0  0  0  0  0  0  0
    7.3108   -1.6365   28.6964 C   0  0  0  0  0  0  0  0  0  0  0  0
   12.6340   -2.7925   24.3156 C   0  0  0  0  0  0  0  0  0  0  0  0
   15.1968   -1.0572   17.3944 H   0  0  0  0  0  0  0  0  0  0  0  0
   16.7274   -1.8833   17.7829 H   0  0  0  0  0  0  0  0  0  0  0  0
   16.5746   -0.1360   17.9879 H   0  0  0  0  0  0  0  0  0  0  0  0
   14.9389   -0.4438   19.7984 H   0  0  0  0  0  0  0  0  0  0  0  0
   16.4840   -1.1662   20.1674 H   0  0  0  0  0  0  0  0  0  0  0  0
   15.6871   -3.3988   19.9253 H   0  0  0  0  0  0  0  0  0  0  0  0
   13.0218   -3.5864   19.2875 H   0  0  0  0  0  0  0  0  0  0  0  0
   13.4052   -2.1669   18.3604 H   0  0  0  0  0  0  0  0  0  0  0  0
   15.1210   -3.4217   17.0974 H   0  0  0  0  0  0  0  0  0  0  0  0
   14.8818   -4.8129   18.1614 H   0  0  0  0  0  0  0  0  0  0  0  0
   13.5770   -4.2729   17.0856 H   0  0  0  0  0  0  0  0  0  0  0  0
   13.5416   -4.2772   20.9798 H   0  0  0  0  0  0  0  0  0  0  0  0
   12.1587   -4.6515   22.8022 H   0  0  0  0  0  0  0  0  0  0  0  0
   14.9537   -4.4153   24.0290 H   0  0  0  0  0  0  0  0  0  0  0  0
   14.3328   -5.8235   23.1660 H   0  0  0  0  0  0  0  0  0  0  0  0
   14.0710   -5.9242   25.7270 H   0  0  0  0  0  0  0  0  0  0  0  0
   12.6148   -6.2063   24.7852 H   0  0  0  0  0  0  0  0  0  0  0  0
   13.2784   -3.7900   26.5009 H   0  0  0  0  0  0  0  0  0  0  0  0
   11.8149   -4.7480   26.3996 H   0  0  0  0  0  0  0  0  0  0  0  0
   11.1522   -3.1553   23.5566 H   0  0  0  0  0  0  0  0  0  0  0  0
   11.1380   -3.9148   24.6898 H   0  0  0  0  0  0  0  0  0  0  0  0
    8.7905   -1.1965   25.5930 H   0  0  0  0  0  0  0  0  0  0  0  0
   10.5517   -0.0501   26.7446 H   0  0  0  0  0  0  0  0  0  0  0  0
   10.1262   -0.7722   28.2887 H   0  0  0  0  0  0  0  0  0  0  0  0
    9.0382    0.4133   27.5208 H   0  0  0  0  0  0  0  0  0  0  0  0
    7.4125   -2.9926   27.0378 H   0  0  0  0  0  0  0  0  0  0  0  0
    6.0568   -1.7418   25.6169 H   0  0  0  0  0  0  0  0  0  0  0  0
    6.7251   -0.1836   26.1555 H   0  0  0  0  0  0  0  0  0  0  0  0
    4.7672   -2.0059   27.6250 H   0  0  0  0  0  0  0  0  0  0  0  0
    4.5765   -0.2767   27.2608 H   0  0  0  0  0  0  0  0  0  0  0  0
    6.3850    0.3170   28.7762 H   0  0  0  0  0  0  0  0  0  0  0  0
    5.4926   -0.9154   29.6867 H   0  0  0  0  0  0  0  0  0  0  0  0
    8.1527   -1.1963   29.2342 H   0  0  0  0  0  0  0  0  0  0  0  0
    7.0931   -2.5891   29.1965 H   0  0  0  0  0  0  0  0  0  0  0  0
   12.8679   -1.8087   23.6371 H   0  0  0  0  0  0  0  0  0  0  0  0
   13.6395   -2.5039   24.9526 H   0  0  0  0  0  0  0  0  0  0  0  0
  1  2  1  0
  2  3  1  0
  3  4  1  0
  4  5  1  0
  3  6  1  0
  6  7  2  0
  6  8  1  0
  8  9  1  0
  9 10  1  0
 10 11  1  0
 11 12  1  0
 12 13  1  0
 13 14  1  0
 14 15  1  0
 15 16  2  0
 15 17  1  0
 17 18  1  0
 17 19  1  0
 19 20  1  0
 20 21  1  0
 21 22  1  0
 22 23  1  0
 14 24  1  0
 24  9  1  0
 23 19  1  0
  1 25  1  0
  1 26  1  0
  1 27  1  0
  2 28  1  0
  2 29  1  0
  3 30  1  0
  4 31  1  0
  4 32  1  0
  5 33  1  0
  5 34  1  0
  5 35  1  0
  8 36  1  0
  9 37  1  0
 10 38  1  0
 10 39  1  0
 11 40  1  0
 11 41  1  0
 12 42  1  0
 12 43  1  0
 13 44  1  0
 13 45  1  0
 17 46  1  0
 18 47  1  0
 18 48  1  0
 18 49  1  0
 19 50  1  0
 20 51  1  0
 20 52  1  0
 21 53  1  0
 21 54  1  0
 22 55  1  0
 22 56  1  0
 23 57  1  0
 23 58  1  0
 24 59  1  0
 24 60  1  0
M  END
>  <Energy>  (784) 
799.58091303167896

>  <compound_id>  (784) 
46723

>  <target_id>  (784) 
1

>  <reference_id>  (784) 
44

>  <inspiration_ids>  (784) 
[27, 44]

>  <energy_score>  (784) 
724.8874775109794

>  <distance_score>  (784) 
6.977960369859263

>  <path>  (784) 
/opt/xchem-fragalysis-2/maxwin/BulkDock/SCRATCH/511023/C46723-P44/C46723-P44.minimised.mol

>  <scratch_subdir>  (784) 
/opt/xchem-fragalysis-2/maxwin/BulkDock/SCRATCH/511023/C46723-P44

>  <fragmenstein_runtime>  (784) 
25.388575553894043

>  <fragmenstein_outcome>  (784) 
too moved

>  <fragmenstein_mode>  (784) 
expansion

>  <fragmenstein_error>  (784) 


$$$$
C46724-P27
     RDKit          3D

 57 58  0  0  0  0  0  0  0  0999 V2000
   14.8598    0.2618   19.1285 C   0  0  0  0  0  0  0  0  0  0  0  0
   14.6716   -0.2221   20.5644 C   0  0  0  0  0  0  0  0  0  0  0  0
   15.0465   -1.7030   20.7953 C   0  0  0  0  0  0  0  0  0  0  0  0
   14.1589   -2.6917   20.0114 C   0  0  0  0  0  0  0  0  0  0  0  0
   14.8405   -4.0180   19.7131 C   0  0  0  0  0  0  0  0  0  0  0  0
   15.1642   -2.0401   22.3237 C   0  0  0  0  0  0  0  0  0  0  0  0
   16.2148   -2.4909   22.6891 O   0  0  0  0  0  0  0  0  0  0  0  0
   13.9721   -1.7185   23.0640 N   0  0  0  0  0  0  0  0  0  0  0  0
   13.6333   -1.9257   24.4597 C   0  0  0  0  0  0  0  0  0  0  0  0
   12.4940   -2.8912   24.6495 C   0  0  0  0  0  0  0  0  0  0  0  0
   12.1772   -2.9821   26.1501 C   0  0  0  0  0  0  0  0  0  0  0  0
   11.4964   -1.9187   26.9999 N   0  0  0  0  0  0  0  0  0  0  0  0
   10.3301   -1.0998   26.7361 C   0  0  0  0  0  0  0  0  0  0  0  0
    9.6614   -0.9902   25.7425 O   0  0  0  0  0  0  0  0  0  0  0  0
    9.9067   -0.3533   28.0732 C   0  0  0  0  0  0  0  0  0  0  0  0
   10.3474   -1.1465   29.3240 C   0  0  0  0  0  0  0  0  0  0  0  0
    8.3882    0.0127   28.2857 C   0  0  0  0  0  0  0  0  0  0  0  0
    7.3182   -1.0162   27.8971 C   0  0  0  0  0  0  0  0  0  0  0  0
    6.0002   -0.2320   27.8228 C   0  0  0  0  0  0  0  0  0  0  0  0
    6.3790    1.2465   27.8928 C   0  0  0  0  0  0  0  0  0  0  0  0
    7.8871    1.2999   27.6371 C   0  0  0  0  0  0  0  0  0  0  0  0
   12.7810   -1.1388   26.6595 C   0  0  0  0  0  0  0  0  0  0  0  0
   13.1534   -0.6994   25.2105 C   0  0  0  0  0  0  0  0  0  0  0  0
   14.6987    1.3437   19.0774 H   0  0  0  0  0  0  0  0  0  0  0  0
   15.8746    0.0547   18.7752 H   0  0  0  0  0  0  0  0  0  0  0  0
   14.1500   -0.2060   18.4419 H   0  0  0  0  0  0  0  0  0  0  0  0
   13.6413   -0.0265   20.8680 H   0  0  0  0  0  0  0  0  0  0  0  0
   15.2979    0.4003   21.2167 H   0  0  0  0  0  0  0  0  0  0  0  0
   16.0700   -1.8078   20.4040 H   0  0  0  0  0  0  0  0  0  0  0  0
   13.8807   -2.2743   19.0414 H   0  0  0  0  0  0  0  0  0  0  0  0
   13.2434   -2.9106   20.5649 H   0  0  0  0  0  0  0  0  0  0  0  0
   15.1243   -4.5309   20.6373 H   0  0  0  0  0  0  0  0  0  0  0  0
   15.7422   -3.8697   19.1107 H   0  0  0  0  0  0  0  0  0  0  0  0
   14.1647   -4.6748   19.1558 H   0  0  0  0  0  0  0  0  0  0  0  0
   13.2406   -1.4314   22.4096 H   0  0  0  0  0  0  0  0  0  0  0  0
   14.5366   -2.3206   24.9418 H   0  0  0  0  0  0  0  0  0  0  0  0
   12.7609   -3.8803   24.2592 H   0  0  0  0  0  0  0  0  0  0  0  0
   11.6143   -2.5561   24.1060 H   0  0  0  0  0  0  0  0  0  0  0  0
   11.4156   -3.7760   26.1947 H   0  0  0  0  0  0  0  0  0  0  0  0
   13.0105   -3.4381   26.7126 H   0  0  0  0  0  0  0  0  0  0  0  0
   10.4698    0.5897   28.0709 H   0  0  0  0  0  0  0  0  0  0  0  0
   11.4355   -1.2576   29.3743 H   0  0  0  0  0  0  0  0  0  0  0  0
   10.0551   -0.6339   30.2470 H   0  0  0  0  0  0  0  0  0  0  0  0
    9.9015   -2.1471   29.3323 H   0  0  0  0  0  0  0  0  0  0  0  0
    8.2618    0.1871   29.3661 H   0  0  0  0  0  0  0  0  0  0  0  0
    7.2576   -1.8282   28.6291 H   0  0  0  0  0  0  0  0  0  0  0  0
    7.5255   -1.4725   26.9261 H   0  0  0  0  0  0  0  0  0  0  0  0
    5.3348   -0.4981   28.6511 H   0  0  0  0  0  0  0  0  0  0  0  0
    5.4706   -0.4632   26.8931 H   0  0  0  0  0  0  0  0  0  0  0  0
    6.1670    1.6265   28.8999 H   0  0  0  0  0  0  0  0  0  0  0  0
    5.8060    1.8589   27.1927 H   0  0  0  0  0  0  0  0  0  0  0  0
    8.3348    2.1894   28.0917 H   0  0  0  0  0  0  0  0  0  0  0  0
    8.1300    1.3159   26.5745 H   0  0  0  0  0  0  0  0  0  0  0  0
   12.6329   -0.1848   27.1890 H   0  0  0  0  0  0  0  0  0  0  0  0
   13.6466   -1.5672   27.1940 H   0  0  0  0  0  0  0  0  0  0  0  0
   12.2951   -0.2290   24.7156 H   0  0  0  0  0  0  0  0  0  0  0  0
   13.9539    0.0487   25.2480 H   0  0  0  0  0  0  0  0  0  0  0  0
  1  2  1  0
  2  3  1  0
  3  4  1  0
  4  5  1  0
  3  6  1  0
  6  7  2  0
  6  8  1  0
  8  9  1  0
  9 10  1  0
 10 11  1  0
 11 12  1  0
 12 13  1  0
 13 14  2  0
 13 15  1  0
 15 16  1  0
 15 17  1  0
 17 18  1  0
 18 19  1  0
 19 20  1  0
 20 21  1  0
 12 22  1  0
 22 23  1  0
 23  9  1  0
 21 17  1  0
  1 24  1  0
  1 25  1  0
  1 26  1  0
  2 27  1  0
  2 28  1  0
  3 29  1  0
  4 30  1  0
  4 31  1  0
  5 32  1  0
  5 33  1  0
  5 34  1  0
  8 35  1  0
  9 36  1  0
 10 37  1  0
 10 38  1  0
 11 39  1  0
 11 40  1  0
 15 41  1  0
 16 42  1  0
 16 43  1  0
 16 44  1  0
 17 45  1  0
 18 46  1  0
 18 47  1  0
 19 48  1  0
 19 49  1  0
 20 50  1  0
 20 51  1  0
 21 52  1  0
 21 53  1  0
 22 54  1  0
 22 55  1  0
 23 56  1  0
 23 57  1  0
M  END
>  <Energy>  (785) 
76.538897526997701

>  <compound_id>  (785) 
46724

>  <target_id>  (785) 
1

>  <reference_id>  (785) 
27

>  <inspiration_ids>  (785) 
[27, 44]

>  <energy_score>  (785) 
41.01464795828747

>  <distance_score>  (785) 
7.73102163964097

>  <path>  (785) 
/opt/xchem-fragalysis-2/maxwin/BulkDock/SCRATCH/511023/C46724-P27/C46724-P27.minimised.mol

>  <scratch_subdir>  (785) 
/opt/xchem-fragalysis-2/maxwin/BulkDock/SCRATCH/511023/C46724-P27

>  <fragmenstein_runtime>  (785) 
20.1738338470459

>  <fragmenstein_outcome>  (785) 
too moved

>  <fragmenstein_mode>  (785) 
expansion

>  <fragmenstein_error>  (785) 


$$$$
C46724-P44
     RDKit          3D

 57 58  0  0  0  0  0  0  0  0999 V2000
   12.7503    2.4358   13.9746 C   0  0  0  0  0  0  0  0  0  0  0  0
   11.7584    1.4438   14.5532 C   0  0  0  0  0  0  0  0  0  0  0  0
   10.2822    1.8845   14.5374 C   0  0  0  0  0  0  0  0  0  0  0  0
    9.4630    1.1223   15.5946 C   0  0  0  0  0  0  0  0  0  0  0  0
    9.3093   -0.3549   15.2768 C   0  0  0  0  0  0  0  0  0  0  0  0
   10.0546    3.4243   14.5703 C   0  0  0  0  0  0  0  0  0  0  0  0
    9.8907    3.9691   13.5147 O   0  0  0  0  0  0  0  0  0  0  0  0
   10.1396    3.9607   15.8958 N   0  0  0  0  0  0  0  0  0  0  0  0
   10.1500    5.3340   16.3697 C   0  0  0  0  0  0  0  0  0  0  0  0
   11.3205    5.5216   17.3083 C   0  0  0  0  0  0  0  0  0  0  0  0
   10.9131    5.1684   18.7384 C   0  0  0  0  0  0  0  0  0  0  0  0
    9.6607    4.3171   18.9754 N   0  0  0  0  0  0  0  0  0  0  0  0
    9.1102    3.7665   20.1872 C   0  0  0  0  0  0  0  0  0  0  0  0
    9.4694    3.9286   21.3238 O   0  0  0  0  0  0  0  0  0  0  0  0
    7.4787    2.7001   20.0131 C   0  0  0  0  0  0  0  0  0  0  0  0
    7.1871    3.3250   18.6305 C   0  0  0  0  0  0  0  0  0  0  0  0
    6.0958    2.3407   21.5283 C   0  0  0  0  0  0  0  0  0  0  0  0
    5.0288    3.8164   22.4566 C   0  0  0  0  0  0  0  0  0  0  0  0
    3.6500    3.4799   23.0740 C   0  0  0  0  0  0  0  0  0  0  0  0
    3.9601    2.1765   23.7131 C   0  0  0  0  0  0  0  0  0  0  0  0
    4.7090    1.3112   22.6068 C   0  0  0  0  0  0  0  0  0  0  0  0
    8.9828    5.6383   18.6267 C   0  0  0  0  0  0  0  0  0  0  0  0
    8.8591    5.7472   17.0859 C   0  0  0  0  0  0  0  0  0  0  0  0
   12.7970    3.3519   14.5710 H   0  0  0  0  0  0  0  0  0  0  0  0
   12.4870    2.7002   12.9457 H   0  0  0  0  0  0  0  0  0  0  0  0
   13.7543    1.9991   13.9623 H   0  0  0  0  0  0  0  0  0  0  0  0
   12.0628    1.1872   15.5634 H   0  0  0  0  0  0  0  0  0  0  0  0
   11.8448    0.5100   13.9821 H   0  0  0  0  0  0  0  0  0  0  0  0
    9.8860    1.5796   13.5568 H   0  0  0  0  0  0  0  0  0  0  0  0
    8.4665    1.5695   15.6825 H   0  0  0  0  0  0  0  0  0  0  0  0
    9.9178    1.2184   16.5849 H   0  0  0  0  0  0  0  0  0  0  0  0
    8.6890   -0.4837   14.3892 H   0  0  0  0  0  0  0  0  0  0  0  0
    8.7972   -0.8545   16.0961 H   0  0  0  0  0  0  0  0  0  0  0  0
   10.2700   -0.8539   15.1276 H   0  0  0  0  0  0  0  0  0  0  0  0
   10.3668    3.2103   16.5428 H   0  0  0  0  0  0  0  0  0  0  0  0
   10.2794    5.9547   15.4755 H   0  0  0  0  0  0  0  0  0  0  0  0
   11.6291    6.5750   17.2989 H   0  0  0  0  0  0  0  0  0  0  0  0
   12.1984    4.9512   16.9847 H   0  0  0  0  0  0  0  0  0  0  0  0
   11.7284    4.6025   19.2023 H   0  0  0  0  0  0  0  0  0  0  0  0
   11.0172    6.0226   19.4354 H   0  0  0  0  0  0  0  0  0  0  0  0
    7.8896    1.6962   19.8091 H   0  0  0  0  0  0  0  0  0  0  0  0
    6.8218    4.3434   18.7346 H   0  0  0  0  0  0  0  0  0  0  0  0
    8.0603    3.2438   17.9828 H   0  0  0  0  0  0  0  0  0  0  0  0
    6.5014    2.8995   17.9484 H   0  0  0  0  0  0  0  0  0  0  0  0
    5.7690    1.5028   21.0901 H   0  0  0  0  0  0  0  0  0  0  0  0
    5.4888    4.0613   23.4419 H   0  0  0  0  0  0  0  0  0  0  0  0
    4.9460    4.6928   21.7887 H   0  0  0  0  0  0  0  0  0  0  0  0
    2.8276    3.4153   22.3551 H   0  0  0  0  0  0  0  0  0  0  0  0
    3.3580    4.2343   23.8136 H   0  0  0  0  0  0  0  0  0  0  0  0
    3.0524    1.7232   24.1076 H   0  0  0  0  0  0  0  0  0  0  0  0
    4.6111    2.3120   24.5873 H   0  0  0  0  0  0  0  0  0  0  0  0
    4.1116    1.0232   21.7299 H   0  0  0  0  0  0  0  0  0  0  0  0
    5.0572    0.4185   23.1719 H   0  0  0  0  0  0  0  0  0  0  0  0
    7.9864    5.6700   19.0692 H   0  0  0  0  0  0  0  0  0  0  0  0
    9.3522    6.5728   19.0865 H   0  0  0  0  0  0  0  0  0  0  0  0
    8.6328    6.7950   16.8512 H   0  0  0  0  0  0  0  0  0  0  0  0
    8.0122    5.1619   16.7121 H   0  0  0  0  0  0  0  0  0  0  0  0
  1  2  1  0
  2  3  1  0
  3  4  1  0
  4  5  1  0
  3  6  1  0
  6  7  2  0
  6  8  1  0
  8  9  1  0
  9 10  1  0
 10 11  1  0
 11 12  1  0
 12 13  1  0
 13 14  2  0
 13 15  1  0
 15 16  1  0
 15 17  1  0
 17 18  1  0
 18 19  1  0
 19 20  1  0
 20 21  1  0
 12 22  1  0
 22 23  1  0
 23  9  1  0
 21 17  1  0
  1 24  1  0
  1 25  1  0
  1 26  1  0
  2 27  1  0
  2 28  1  0
  3 29  1  0
  4 30  1  0
  4 31  1  0
  5 32  1  0
  5 33  1  0
  5 34  1  0
  8 35  1  0
  9 36  1  0
 10 37  1  0
 10 38  1  0
 11 39  1  0
 11 40  1  0
 15 41  1  0
 16 42  1  0
 16 43  1  0
 16 44  1  0
 17 45  1  0
 18 46  1  0
 18 47  1  0
 19 48  1  0
 19 49  1  0
 20 50  1  0
 20 51  1  0
 21 52  1  0
 21 53  1  0
 22 54  1  0
 22 55  1  0
 23 56  1  0
 23 57  1  0
M  END
>  <Energy>  (786) 
438.99096818512805

>  <compound_id>  (786) 
46724

>  <target_id>  (786) 
1

>  <reference_id>  (786) 
44

>  <inspiration_ids>  (786) 
[27, 44]

>  <energy_score>  (786) 
403.46671861641664

>  <distance_score>  (786) 
8.955734796242737

>  <path>  (786) 
/opt/xchem-fragalysis-2/maxwin/BulkDock/SCRATCH/511023/C46724-P44/C46724-P44.minimised.mol

>  <scratch_subdir>  (786) 
/opt/xchem-fragalysis-2/maxwin/BulkDock/SCRATCH/511023/C46724-P44

>  <fragmenstein_runtime>  (786) 
20.361727237701416

>  <fragmenstein_outcome>  (786) 
too moved

>  <fragmenstein_mode>  (786) 
expansion

>  <fragmenstein_error>  (786) 


$$$$
C46726-P27
     RDKit          3D

 54 55  0  0  0  0  0  0  0  0999 V2000
   13.6292    1.2039   16.5761 C   0  0  0  0  0  0  0  0  0  0  0  0
   14.3477   -0.1339   16.6545 C   0  0  0  0  0  0  0  0  0  0  0  0
   13.4397   -1.3584   16.4621 C   0  0  0  0  0  0  0  0  0  0  0  0
   12.7803   -1.4138   15.0704 C   0  0  0  0  0  0  0  0  0  0  0  0
   11.6887   -2.4772   15.0002 C   0  0  0  0  0  0  0  0  0  0  0  0
   14.3078   -2.6153   16.6960 C   0  0  0  0  0  0  0  0  0  0  0  0
   14.8381   -3.1819   15.8275 O   0  0  0  0  0  0  0  0  0  0  0  0
   14.2964   -2.8974   18.2164 N   0  0  0  0  0  0  0  0  0  0  0  0
   14.8564   -3.9874   18.9674 C   0  0  0  0  0  0  0  0  0  0  0  0
   16.3140   -4.2344   18.6460 C   0  0  0  0  0  0  0  0  0  0  0  0
   16.8793   -5.1898   19.7016 C   0  0  0  0  0  0  0  0  0  0  0  0
   17.1296   -4.6005   21.0690 N   0  0  0  0  0  0  0  0  0  0  0  0
   17.8499   -5.1768   22.2784 C   0  0  0  0  0  0  0  0  0  0  0  0
   18.3083   -6.2460   22.4528 O   0  0  0  0  0  0  0  0  0  0  0  0
   17.9759   -4.0311   23.2961 C   0  0  0  0  0  0  0  0  0  0  0  0
   19.1146   -3.1053   22.8655 C   0  0  0  0  0  0  0  0  0  0  0  0
   18.2382   -4.5409   24.7157 C   0  0  0  0  0  0  0  0  0  0  0  0
   17.0802   -5.3323   25.3866 C   0  0  0  0  0  0  0  0  0  0  0  0
   17.4927   -4.6693   26.7157 C   0  0  0  0  0  0  0  0  0  0  0  0
   18.0787   -3.5174   25.8755 C   0  0  0  0  0  0  0  0  0  0  0  0
   15.6246   -4.8343   21.1602 C   0  0  0  0  0  0  0  0  0  0  0  0
   14.7484   -3.7889   20.4600 C   0  0  0  0  0  0  0  0  0  0  0  0
   14.3267    2.0146   16.8121 H   0  0  0  0  0  0  0  0  0  0  0  0
   13.2343    1.3969   15.5752 H   0  0  0  0  0  0  0  0  0  0  0  0
   12.8074    1.2541   17.2919 H   0  0  0  0  0  0  0  0  0  0  0  0
   15.1518   -0.1487   15.9076 H   0  0  0  0  0  0  0  0  0  0  0  0
   14.8433   -0.1959   17.6317 H   0  0  0  0  0  0  0  0  0  0  0  0
   12.6360   -1.3283   17.2019 H   0  0  0  0  0  0  0  0  0  0  0  0
   13.5321   -1.6179   14.2986 H   0  0  0  0  0  0  0  0  0  0  0  0
   12.3205   -0.4537   14.8162 H   0  0  0  0  0  0  0  0  0  0  0  0
   10.8111   -2.1624   15.5720 H   0  0  0  0  0  0  0  0  0  0  0  0
   11.3847   -2.6326   13.9626 H   0  0  0  0  0  0  0  0  0  0  0  0
   12.0250   -3.4388   15.3960 H   0  0  0  0  0  0  0  0  0  0  0  0
   13.8000   -2.1576   18.6934 H   0  0  0  0  0  0  0  0  0  0  0  0
   14.2787   -4.8741   18.6832 H   0  0  0  0  0  0  0  0  0  0  0  0
   16.8808   -3.2944   18.6520 H   0  0  0  0  0  0  0  0  0  0  0  0
   16.4211   -4.6691   17.6456 H   0  0  0  0  0  0  0  0  0  0  0  0
   17.9156   -5.3660   19.3694 H   0  0  0  0  0  0  0  0  0  0  0  0
   16.4978   -6.2256   19.6645 H   0  0  0  0  0  0  0  0  0  0  0  0
   17.0425   -3.4548   23.2926 H   0  0  0  0  0  0  0  0  0  0  0  0
   18.9401   -2.6951   21.8653 H   0  0  0  0  0  0  0  0  0  0  0  0
   20.0702   -3.6414   22.8406 H   0  0  0  0  0  0  0  0  0  0  0  0
   19.2225   -2.2644   23.5584 H   0  0  0  0  0  0  0  0  0  0  0  0
   19.1935   -5.0838   24.7833 H   0  0  0  0  0  0  0  0  0  0  0  0
   17.1689   -6.4214   25.3553 H   0  0  0  0  0  0  0  0  0  0  0  0
   16.0771   -5.0472   25.0479 H   0  0  0  0  0  0  0  0  0  0  0  0
   16.6747   -4.4003   27.3881 H   0  0  0  0  0  0  0  0  0  0  0  0
   18.2463   -5.2347   27.2758 H   0  0  0  0  0  0  0  0  0  0  0  0
   17.3619   -2.7118   25.6773 H   0  0  0  0  0  0  0  0  0  0  0  0
   19.0067   -3.0815   26.2546 H   0  0  0  0  0  0  0  0  0  0  0  0
   15.2806   -5.8802   21.0680 H   0  0  0  0  0  0  0  0  0  0  0  0
   15.4135   -4.6648   22.2284 H   0  0  0  0  0  0  0  0  0  0  0  0
   13.7047   -3.8870   20.7818 H   0  0  0  0  0  0  0  0  0  0  0  0
   15.0767   -2.7809   20.7456 H   0  0  0  0  0  0  0  0  0  0  0  0
  1  2  1  0
  2  3  1  0
  3  4  1  0
  4  5  1  0
  3  6  1  0
  6  7  2  0
  6  8  1  0
  8  9  1  0
  9 10  1  0
 10 11  1  0
 11 12  1  0
 12 13  1  0
 13 14  2  0
 13 15  1  0
 15 16  1  0
 15 17  1  0
 17 18  1  0
 18 19  1  0
 19 20  1  0
 12 21  1  0
 21 22  1  0
 22  9  1  0
 20 17  1  0
  1 23  1  0
  1 24  1  0
  1 25  1  0
  2 26  1  0
  2 27  1  0
  3 28  1  0
  4 29  1  0
  4 30  1  0
  5 31  1  0
  5 32  1  0
  5 33  1  0
  8 34  1  0
  9 35  1  0
 10 36  1  0
 10 37  1  0
 11 38  1  0
 11 39  1  0
 15 40  1  0
 16 41  1  0
 16 42  1  0
 16 43  1  0
 17 44  1  0
 18 45  1  0
 18 46  1  0
 19 47  1  0
 19 48  1  0
 20 49  1  0
 20 50  1  0
 21 51  1  0
 21 52  1  0
 22 53  1  0
 22 54  1  0
M  END
>  <Energy>  (787) 
80.751965277887507

>  <compound_id>  (787) 
46726

>  <target_id>  (787) 
1

>  <reference_id>  (787) 
27

>  <inspiration_ids>  (787) 
[27, 44]

>  <energy_score>  (787) 
42.86459369253717

>  <distance_score>  (787) 
0.9676086542551068

>  <path>  (787) 
/opt/xchem-fragalysis-2/maxwin/BulkDock/SCRATCH/511023/C46726-P27/C46726-P27.minimised.mol

>  <scratch_subdir>  (787) 
/opt/xchem-fragalysis-2/maxwin/BulkDock/SCRATCH/511023/C46726-P27

>  <fragmenstein_runtime>  (787) 
22.175966262817383

>  <fragmenstein_outcome>  (787) 
too contorted

>  <fragmenstein_mode>  (787) 
expansion

>  <fragmenstein_error>  (787) 


$$$$
C46726-P44
     RDKit          3D

 54 55  0  0  0  0  0  0  0  0999 V2000
   14.4315    0.0657   15.0180 C   0  0  0  0  0  0  0  0  0  0  0  0
   14.8177   -1.1379   15.8641 C   0  0  0  0  0  0  0  0  0  0  0  0
   13.7307   -2.2258   15.9737 C   0  0  0  0  0  0  0  0  0  0  0  0
   13.0558   -2.5577   14.6326 C   0  0  0  0  0  0  0  0  0  0  0  0
   11.8379   -3.4495   14.8235 C   0  0  0  0  0  0  0  0  0  0  0  0
   14.4056   -3.4820   16.5786 C   0  0  0  0  0  0  0  0  0  0  0  0
   15.0016   -4.2337   15.8626 O   0  0  0  0  0  0  0  0  0  0  0  0
   14.2454   -3.4753   18.0088 N   0  0  0  0  0  0  0  0  0  0  0  0
   14.6744   -4.4299   19.0226 C   0  0  0  0  0  0  0  0  0  0  0  0
   16.1539   -4.7464   18.9305 C   0  0  0  0  0  0  0  0  0  0  0  0
   16.9632   -3.5946   19.5437 C   0  0  0  0  0  0  0  0  0  0  0  0
   16.9627   -3.4198   21.0462 N   0  0  0  0  0  0  0  0  0  0  0  0
   16.9209   -4.3899   22.1009 C   0  0  0  0  0  0  0  0  0  0  0  0
   16.7845   -5.5844   22.0596 O   0  0  0  0  0  0  0  0  0  0  0  0
   17.1766   -3.6776   23.4390 C   0  0  0  0  0  0  0  0  0  0  0  0
   18.6859   -3.5825   23.6619 C   0  0  0  0  0  0  0  0  0  0  0  0
   16.5213   -4.4011   24.6176 C   0  0  0  0  0  0  0  0  0  0  0  0
   14.9664   -4.4161   24.6316 C   0  0  0  0  0  0  0  0  0  0  0  0
   15.0507   -4.2872   26.1654 C   0  0  0  0  0  0  0  0  0  0  0  0
   16.4282   -3.6252   25.9616 C   0  0  0  0  0  0  0  0  0  0  0  0
   15.5596   -2.8890   20.7653 C   0  0  0  0  0  0  0  0  0  0  0  0
   14.4422   -3.8889   20.4177 C   0  0  0  0  0  0  0  0  0  0  0  0
   15.1443    0.8816   15.1743 H   0  0  0  0  0  0  0  0  0  0  0  0
   14.4555   -0.1814   13.9517 H   0  0  0  0  0  0  0  0  0  0  0  0
   13.4280    0.4236   15.2620 H   0  0  0  0  0  0  0  0  0  0  0  0
   15.7416   -1.5648   15.4530 H   0  0  0  0  0  0  0  0  0  0  0  0
   15.0712   -0.7951   16.8754 H   0  0  0  0  0  0  0  0  0  0  0  0
   12.9458   -1.8575   16.6443 H   0  0  0  0  0  0  0  0  0  0  0  0
   13.7615   -3.0395   13.9467 H   0  0  0  0  0  0  0  0  0  0  0  0
   12.7043   -1.6453   14.1399 H   0  0  0  0  0  0  0  0  0  0  0  0
   11.1037   -2.9688   15.4758 H   0  0  0  0  0  0  0  0  0  0  0  0
   11.3597   -3.6302   13.8582 H   0  0  0  0  0  0  0  0  0  0  0  0
   12.1070   -4.4166   15.2582 H   0  0  0  0  0  0  0  0  0  0  0  0
   13.6057   -2.7376   18.2649 H   0  0  0  0  0  0  0  0  0  0  0  0
   14.0720   -5.3267   18.8644 H   0  0  0  0  0  0  0  0  0  0  0  0
   16.4706   -4.9109   17.8955 H   0  0  0  0  0  0  0  0  0  0  0  0
   16.3671   -5.6752   19.4725 H   0  0  0  0  0  0  0  0  0  0  0  0
   16.9212   -2.6510   18.9741 H   0  0  0  0  0  0  0  0  0  0  0  0
   18.0077   -3.9031   19.3786 H   0  0  0  0  0  0  0  0  0  0  0  0
   16.7778   -2.6573   23.3828 H   0  0  0  0  0  0  0  0  0  0  0  0
   19.1756   -3.0539   22.8371 H   0  0  0  0  0  0  0  0  0  0  0  0
   19.1385   -4.5781   23.7320 H   0  0  0  0  0  0  0  0  0  0  0  0
   18.9140   -3.0472   24.5894 H   0  0  0  0  0  0  0  0  0  0  0  0
   16.9378   -5.4099   24.7609 H   0  0  0  0  0  0  0  0  0  0  0  0
   14.4973   -5.3304   24.2590 H   0  0  0  0  0  0  0  0  0  0  0  0
   14.4971   -3.5526   24.1454 H   0  0  0  0  0  0  0  0  0  0  0  0
   14.2862   -3.6625   26.6337 H   0  0  0  0  0  0  0  0  0  0  0  0
   15.0964   -5.2499   26.6875 H   0  0  0  0  0  0  0  0  0  0  0  0
   16.3783   -2.5350   25.8566 H   0  0  0  0  0  0  0  0  0  0  0  0
   17.1872   -3.8755   26.7074 H   0  0  0  0  0  0  0  0  0  0  0  0
   15.2489   -2.4880   21.7429 H   0  0  0  0  0  0  0  0  0  0  0  0
   15.5431   -1.9725   20.1503 H   0  0  0  0  0  0  0  0  0  0  0  0
   14.4318   -4.7127   21.1404 H   0  0  0  0  0  0  0  0  0  0  0  0
   13.4662   -3.3993   20.4925 H   0  0  0  0  0  0  0  0  0  0  0  0
  1  2  1  0
  2  3  1  0
  3  4  1  0
  4  5  1  0
  3  6  1  0
  6  7  2  0
  6  8  1  0
  8  9  1  0
  9 10  1  0
 10 11  1  0
 11 12  1  0
 12 13  1  0
 13 14  2  0
 13 15  1  0
 15 16  1  0
 15 17  1  0
 17 18  1  0
 18 19  1  0
 19 20  1  0
 12 21  1  0
 21 22  1  0
 22  9  1  0
 20 17  1  0
  1 23  1  0
  1 24  1  0
  1 25  1  0
  2 26  1  0
  2 27  1  0
  3 28  1  0
  4 29  1  0
  4 30  1  0
  5 31  1  0
  5 32  1  0
  5 33  1  0
  8 34  1  0
  9 35  1  0
 10 36  1  0
 10 37  1  0
 11 38  1  0
 11 39  1  0
 15 40  1  0
 16 41  1  0
 16 42  1  0
 16 43  1  0
 17 44  1  0
 18 45  1  0
 18 46  1  0
 19 47  1  0
 19 48  1  0
 20 49  1  0
 20 50  1  0
 21 51  1  0
 21 52  1  0
 22 53  1  0
 22 54  1  0
M  END
>  <Energy>  (788) 
63.216699955729304

>  <compound_id>  (788) 
46726

>  <target_id>  (788) 
1

>  <reference_id>  (788) 
44

>  <inspiration_ids>  (788) 
[27, 44]

>  <energy_score>  (788) 
26.851982673560137

>  <distance_score>  (788) 
1.6042008134322825

>  <path>  (788) 
/opt/xchem-fragalysis-2/maxwin/BulkDock/SCRATCH/511023/C46726-P44/C46726-P44.minimised.mol

>  <scratch_subdir>  (788) 
/opt/xchem-fragalysis-2/maxwin/BulkDock/SCRATCH/511023/C46726-P44

>  <fragmenstein_runtime>  (788) 
38.1873095035553

>  <fragmenstein_outcome>  (788) 
too moved

>  <fragmenstein_mode>  (788) 
expansion

>  <fragmenstein_error>  (788) 


$$$$
C46733-P51
     RDKit          3D

 54 57  0  0  0  0  0  0  0  0999 V2000
  -11.7956  -14.6211   13.3384 C   0  0  0  0  0  0  0  0  0  0  0  0
  -10.1968  -14.2544   12.9212 C   0  0  0  0  0  0  0  0  0  0  0  0
   -9.9207  -16.2873   13.2053 C   0  0  0  0  0  0  0  0  0  0  0  0
  -10.1118  -18.0294   12.7465 N   0  0  0  0  0  0  0  0  0  0  0  0
   -9.4090  -19.4132   11.8901 C   0  0  0  0  0  0  0  0  0  0  0  0
   -9.4862  -20.9959   11.8036 C   0  0  0  0  0  0  0  0  0  0  0  0
  -10.5720  -21.4240   12.5254 O   0  0  0  0  0  0  0  0  0  0  0  0
  -10.9453  -20.4320   13.4690 C   0  0  0  0  0  0  0  0  0  0  0  0
  -10.9996  -18.7527   13.6550 C   0  0  0  0  0  0  0  0  0  0  0  0
   -8.9796  -12.6922   13.2354 N   0  0  0  0  0  0  0  0  0  0  0  0
   -9.1780  -10.8597   12.9007 C   0  0  0  0  0  0  0  0  0  0  0  0
  -10.2108  -10.4683   12.5017 O   0  0  0  0  0  0  0  0  0  0  0  0
   -7.8680   -9.2768   13.0393 C   0  0  0  0  0  0  0  0  0  0  0  0
   -6.9446   -7.9354   11.7446 N   0  0  0  0  0  0  0  0  0  0  0  0
   -6.6362   -7.9837   10.2503 C   0  0  0  0  0  0  0  0  0  0  0  0
   -7.2177   -8.2937    9.2073 O   0  0  0  0  0  0  0  0  0  0  0  0
   -5.7014   -6.4011   10.3649 N   0  0  0  0  0  0  0  0  0  0  0  0
   -6.7043   -6.0561    9.4736 C   0  0  0  0  0  0  0  0  0  0  0  0
   -7.7518   -5.0544    9.6760 C   0  0  0  0  0  0  0  0  0  0  0  0
   -8.5642   -4.2042    8.6714 C   0  0  0  0  0  0  0  0  0  0  0  0
   -7.8832   -4.4919    7.4393 C   0  0  0  0  0  0  0  0  0  0  0  0
   -8.2385   -3.7244    6.3082 C   0  0  0  0  0  0  0  0  0  0  0  0
   -7.3182   -2.8230    5.8315 C   0  0  0  0  0  0  0  0  0  0  0  0
   -6.0813   -2.7950    6.4446 C   0  0  0  0  0  0  0  0  0  0  0  0
   -5.7202   -3.7418    7.4210 C   0  0  0  0  0  0  0  0  0  0  0  0
   -6.6475   -4.7184    8.0144 C   0  0  0  0  0  0  0  0  0  0  0  0
   -5.9376   -7.3314   10.9879 C   0  0  0  0  0  0  0  0  0  0  0  0
   -4.8658   -7.9933   11.2120 O   0  0  0  0  0  0  0  0  0  0  0  0
  -12.1309  -15.5658   12.8963 H   0  0  0  0  0  0  0  0  0  0  0  0
  -11.9452  -14.6976   14.4210 H   0  0  0  0  0  0  0  0  0  0  0  0
  -12.6093  -14.0482   12.9429 H   0  0  0  0  0  0  0  0  0  0  0  0
  -10.3041  -14.0831   11.8601 H   0  0  0  0  0  0  0  0  0  0  0  0
  -10.8585  -16.4242   13.6731 H   0  0  0  0  0  0  0  0  0  0  0  0
   -9.0619  -16.4670   13.8530 H   0  0  0  0  0  0  0  0  0  0  0  0
   -8.3145  -19.4949   11.9428 H   0  0  0  0  0  0  0  0  0  0  0  0
   -9.8848  -19.2771   10.9538 H   0  0  0  0  0  0  0  0  0  0  0  0
   -8.5878  -21.5357   12.1314 H   0  0  0  0  0  0  0  0  0  0  0  0
   -9.5386  -21.3421   10.7623 H   0  0  0  0  0  0  0  0  0  0  0  0
  -10.4330  -20.8280   14.3395 H   0  0  0  0  0  0  0  0  0  0  0  0
  -11.9930  -20.5359   13.3691 H   0  0  0  0  0  0  0  0  0  0  0  0
  -10.7320  -18.6097   14.7138 H   0  0  0  0  0  0  0  0  0  0  0  0
  -11.9135  -18.2237   13.8425 H   0  0  0  0  0  0  0  0  0  0  0  0
   -8.0337  -12.8695   13.4832 H   0  0  0  0  0  0  0  0  0  0  0  0
   -7.0300   -9.6953   13.6142 H   0  0  0  0  0  0  0  0  0  0  0  0
   -8.3521   -8.6584   13.7929 H   0  0  0  0  0  0  0  0  0  0  0  0
   -4.6230   -6.3273   10.2989 H   0  0  0  0  0  0  0  0  0  0  0  0
   -8.7110   -5.0862   10.2523 H   0  0  0  0  0  0  0  0  0  0  0  0
   -7.1252   -4.8676   10.5641 H   0  0  0  0  0  0  0  0  0  0  0  0
   -8.5534   -3.1254    8.8655 H   0  0  0  0  0  0  0  0  0  0  0  0
   -9.5709   -4.5128    8.5977 H   0  0  0  0  0  0  0  0  0  0  0  0
   -9.2747   -3.6737    5.9862 H   0  0  0  0  0  0  0  0  0  0  0  0
   -7.5787   -2.1098    5.0575 H   0  0  0  0  0  0  0  0  0  0  0  0
   -5.3669   -2.0302    6.2003 H   0  0  0  0  0  0  0  0  0  0  0  0
   -4.6635   -3.6805    7.6843 H   0  0  0  0  0  0  0  0  0  0  0  0
  1  2  1  0
  2  3  1  0
  3  4  1  0
  4  5  1  0
  5  6  1  0
  6  7  1  0
  7  8  1  0
  8  9  1  0
  2 10  1  0
 10 11  1  0
 11 12  2  0
 11 13  1  0
 13 14  1  0
 14 15  1  0
 15 16  2  0
 15 17  1  0
 17 18  1  0
 18 19  1  0
 19 20  1  0
 20 21  1  0
 21 22  2  0
 22 23  1  0
 23 24  2  0
 24 25  1  0
 25 26  2  0
 18 27  1  0
 27 28  2  0
  9  4  1  0
 27 14  1  0
 26 18  1  0
 26 21  1  0
  1 29  1  0
  1 30  1  0
  1 31  1  0
  2 32  1  0
  3 33  1  0
  3 34  1  0
  5 35  1  0
  5 36  1  0
  6 37  1  0
  6 38  1  0
  8 39  1  0
  8 40  1  0
  9 41  1  0
  9 42  1  0
 10 43  1  0
 13 44  1  0
 13 45  1  0
 17 46  1  0
 19 47  1  0
 19 48  1  0
 20 49  1  0
 20 50  1  0
 22 51  1  0
 23 52  1  0
 24 53  1  0
 25 54  1  0
M  END
>  <Energy>  (789) 
1568.0631045227194

>  <compound_id>  (789) 
46733

>  <target_id>  (789) 
1

>  <reference_id>  (789) 
51

>  <inspiration_ids>  (789) 
[51, 28]

>  <energy_score>  (789) 
1450.425080260056

>  <distance_score>  (789) 
7.630785567434773

>  <path>  (789) 
/opt/xchem-fragalysis-2/maxwin/BulkDock/SCRATCH/511023/C46733-P51/C46733-P51.minimised.mol

>  <scratch_subdir>  (789) 
/opt/xchem-fragalysis-2/maxwin/BulkDock/SCRATCH/511023/C46733-P51

>  <fragmenstein_runtime>  (789) 
22.23627233505249

>  <fragmenstein_outcome>  (789) 
too moved

>  <fragmenstein_mode>  (789) 
expansion

>  <fragmenstein_error>  (789) 


$$$$
C46733-P28
     RDKit          3D

 54 57  0  0  0  0  0  0  0  0999 V2000
   -9.2876  -17.9759   12.5791 C   0  0  0  0  0  0  0  0  0  0  0  0
  -10.4560  -17.4128   13.4817 C   0  0  0  0  0  0  0  0  0  0  0  0
  -10.7810  -19.4006   13.7258 C   0  0  0  0  0  0  0  0  0  0  0  0
  -10.4421  -21.1685   13.5545 N   0  0  0  0  0  0  0  0  0  0  0  0
   -9.7507  -21.8147   12.3814 C   0  0  0  0  0  0  0  0  0  0  0  0
  -10.3408  -23.2263   12.0662 C   0  0  0  0  0  0  0  0  0  0  0  0
  -11.0358  -23.8049   13.1739 O   0  0  0  0  0  0  0  0  0  0  0  0
  -10.2528  -23.5982   14.3489 C   0  0  0  0  0  0  0  0  0  0  0  0
   -9.8949  -22.0818   14.6078 C   0  0  0  0  0  0  0  0  0  0  0  0
  -10.5373  -15.8446   12.4746 N   0  0  0  0  0  0  0  0  0  0  0  0
   -9.9140  -14.3267   12.7604 C   0  0  0  0  0  0  0  0  0  0  0  0
   -9.3491  -13.8950   13.7646 O   0  0  0  0  0  0  0  0  0  0  0  0
   -9.8506  -13.0101   11.3008 C   0  0  0  0  0  0  0  0  0  0  0  0
   -8.2571  -12.1941   10.5827 N   0  0  0  0  0  0  0  0  0  0  0  0
   -8.7298  -11.1575   12.2046 C   0  0  0  0  0  0  0  0  0  0  0  0
   -9.1253  -11.3576   13.3300 O   0  0  0  0  0  0  0  0  0  0  0  0
   -8.5614   -9.3956   11.3320 N   0  0  0  0  0  0  0  0  0  0  0  0
   -7.7447   -9.0122    9.5045 C   0  0  0  0  0  0  0  0  0  0  0  0
   -5.9308   -8.5122    9.8584 C   0  0  0  0  0  0  0  0  0  0  0  0
   -5.9077   -7.2383   10.4787 C   0  0  0  0  0  0  0  0  0  0  0  0
   -6.8530   -6.6967    9.4112 C   0  0  0  0  0  0  0  0  0  0  0  0
   -7.1073   -5.1985    8.9519 C   0  0  0  0  0  0  0  0  0  0  0  0
   -7.9200   -4.3130    8.0551 C   0  0  0  0  0  0  0  0  0  0  0  0
   -8.7146   -4.8960    7.1934 C   0  0  0  0  0  0  0  0  0  0  0  0
   -8.7108   -6.2440    7.5058 C   0  0  0  0  0  0  0  0  0  0  0  0
   -7.6453   -7.5441    8.4712 C   0  0  0  0  0  0  0  0  0  0  0  0
   -7.8008  -11.0978    8.7016 C   0  0  0  0  0  0  0  0  0  0  0  0
   -8.5993  -11.3524    7.7454 O   0  0  0  0  0  0  0  0  0  0  0  0
   -9.5640  -18.2608   11.5957 H   0  0  0  0  0  0  0  0  0  0  0  0
   -8.4208  -17.4491   12.8496 H   0  0  0  0  0  0  0  0  0  0  0  0
   -8.8752  -18.9758   12.4887 H   0  0  0  0  0  0  0  0  0  0  0  0
   -9.7251  -16.9682   14.0607 H   0  0  0  0  0  0  0  0  0  0  0  0
  -11.8341  -19.5128   13.7597 H   0  0  0  0  0  0  0  0  0  0  0  0
  -10.4062  -19.6034   12.7703 H   0  0  0  0  0  0  0  0  0  0  0  0
   -8.6944  -22.0089   12.6364 H   0  0  0  0  0  0  0  0  0  0  0  0
   -9.5375  -21.2300   11.5067 H   0  0  0  0  0  0  0  0  0  0  0  0
   -9.5408  -23.9264   11.8076 H   0  0  0  0  0  0  0  0  0  0  0  0
  -11.0260  -23.2210   11.2257 H   0  0  0  0  0  0  0  0  0  0  0  0
   -9.3586  -24.1949   14.2183 H   0  0  0  0  0  0  0  0  0  0  0  0
  -10.7525  -24.0899   15.1726 H   0  0  0  0  0  0  0  0  0  0  0  0
   -8.8004  -22.1152   14.5620 H   0  0  0  0  0  0  0  0  0  0  0  0
  -10.0186  -21.7605   15.6266 H   0  0  0  0  0  0  0  0  0  0  0  0
  -11.0113  -15.8501   11.5892 H   0  0  0  0  0  0  0  0  0  0  0  0
  -10.2990  -13.3404   10.3936 H   0  0  0  0  0  0  0  0  0  0  0  0
  -10.4777  -12.2340   11.6725 H   0  0  0  0  0  0  0  0  0  0  0  0
   -8.4759   -8.7540   12.0814 H   0  0  0  0  0  0  0  0  0  0  0  0
   -5.2865   -9.1547   10.4613 H   0  0  0  0  0  0  0  0  0  0  0  0
   -5.5433   -8.6499    8.8493 H   0  0  0  0  0  0  0  0  0  0  0  0
   -6.1869   -7.4910   11.4855 H   0  0  0  0  0  0  0  0  0  0  0  0
   -4.9996   -6.6747   10.6351 H   0  0  0  0  0  0  0  0  0  0  0  0
   -6.1726   -4.8420    8.5579 H   0  0  0  0  0  0  0  0  0  0  0  0
   -7.7394   -3.2445    7.9656 H   0  0  0  0  0  0  0  0  0  0  0  0
   -9.3540   -4.4052    6.4785 H   0  0  0  0  0  0  0  0  0  0  0  0
   -9.5802   -6.6733    6.9517 H   0  0  0  0  0  0  0  0  0  0  0  0
  1  2  1  0
  2  3  1  0
  3  4  1  0
  4  5  1  0
  5  6  1  0
  6  7  1  0
  7  8  1  0
  8  9  1  0
  2 10  1  0
 10 11  1  0
 11 12  2  0
 11 13  1  0
 13 14  1  0
 14 15  1  0
 15 16  2  0
 15 17  1  0
 17 18  1  0
 18 19  1  0
 19 20  1  0
 20 21  1  0
 21 22  2  0
 22 23  1  0
 23 24  2  0
 24 25  1  0
 25 26  2  0
 18 27  1  0
 27 28  2  0
  9  4  1  0
 27 14  1  0
 26 18  1  0
 26 21  1  0
  1 29  1  0
  1 30  1  0
  1 31  1  0
  2 32  1  0
  3 33  1  0
  3 34  1  0
  5 35  1  0
  5 36  1  0
  6 37  1  0
  6 38  1  0
  8 39  1  0
  8 40  1  0
  9 41  1  0
  9 42  1  0
 10 43  1  0
 13 44  1  0
 13 45  1  0
 17 46  1  0
 19 47  1  0
 19 48  1  0
 20 49  1  0
 20 50  1  0
 22 51  1  0
 23 52  1  0
 24 53  1  0
 25 54  1  0
M  END
>  <Energy>  (790) 
1585.8965581733389

>  <compound_id>  (790) 
46733

>  <target_id>  (790) 
1

>  <reference_id>  (790) 
28

>  <inspiration_ids>  (790) 
[51, 28]

>  <energy_score>  (790) 
1468.2585339106981

>  <distance_score>  (790) 
6.869588734842749

>  <path>  (790) 
/opt/xchem-fragalysis-2/maxwin/BulkDock/SCRATCH/511023/C46733-P28/C46733-P28.minimised.mol

>  <scratch_subdir>  (790) 
/opt/xchem-fragalysis-2/maxwin/BulkDock/SCRATCH/511023/C46733-P28

>  <fragmenstein_runtime>  (790) 
15.68232798576355

>  <fragmenstein_outcome>  (790) 
too moved

>  <fragmenstein_mode>  (790) 
expansion

>  <fragmenstein_error>  (790) 


$$$$
C23592-P68
     RDKit          3D

 44 46  0  0  0  0  0  0  0  0999 V2000
  -10.8498  -28.7713   12.7161 C   0  0  0  0  0  0  0  0  0  0  0  0
  -10.4395  -28.5737   14.0728 O   0  0  0  0  0  0  0  0  0  0  0  0
  -11.4693  -28.1883   15.0350 C   0  0  0  0  0  0  0  0  0  0  0  0
  -12.4004  -29.5499   15.4876 C   0  0  0  0  0  0  0  0  0  0  0  0
  -12.5205  -30.0088   16.9934 O   0  0  0  0  0  0  0  0  0  0  0  0
  -12.3432  -31.3648   17.4766 C   0  0  0  0  0  0  0  0  0  0  0  0
  -12.1593  -32.2921   16.6970 O   0  0  0  0  0  0  0  0  0  0  0  0
  -12.5027  -31.5381   19.0901 C   0  0  0  0  0  0  0  0  0  0  0  0
  -11.8022  -32.6464   20.0834 C   0  0  0  0  0  0  0  0  0  0  0  0
  -11.4001  -32.2504   21.3856 C   0  0  0  0  0  0  0  0  0  0  0  0
  -10.7264  -33.0976   22.3210 C   0  0  0  0  0  0  0  0  0  0  0  0
  -10.3776  -34.4121   21.9728 C   0  0  0  0  0  0  0  0  0  0  0  0
   -9.5968  -35.2927   22.7230 N   0  0  0  0  0  0  0  0  0  0  0  0
   -9.4358  -36.4085   22.0513 C   0  0  0  0  0  0  0  0  0  0  0  0
  -10.2555  -36.4972   20.5447 S   0  0  0  0  0  0  0  0  0  0  0  0
  -10.8336  -34.8656   20.7320 C   0  0  0  0  0  0  0  0  0  0  0  0
  -11.5984  -34.0215   19.8223 C   0  0  0  0  0  0  0  0  0  0  0  0
  -12.1073  -26.9040   14.4060 C   0  0  0  0  0  0  0  0  0  0  0  0
  -13.2704  -26.2818   15.1554 C   0  0  0  0  0  0  0  0  0  0  0  0
  -13.8264  -25.0962   14.3468 C   0  0  0  0  0  0  0  0  0  0  0  0
  -13.0304  -24.7075   13.2245 O   0  0  0  0  0  0  0  0  0  0  0  0
  -11.6293  -24.5856   13.4394 C   0  0  0  0  0  0  0  0  0  0  0  0
  -11.0461  -25.7823   14.1748 C   0  0  0  0  0  0  0  0  0  0  0  0
  -11.8102  -29.2922   12.6645 H   0  0  0  0  0  0  0  0  0  0  0  0
  -10.8845  -27.8262   12.1689 H   0  0  0  0  0  0  0  0  0  0  0  0
  -10.0944  -29.3981   12.2333 H   0  0  0  0  0  0  0  0  0  0  0  0
  -10.9400  -27.8936   15.9475 H   0  0  0  0  0  0  0  0  0  0  0  0
  -13.4358  -29.3552   15.1949 H   0  0  0  0  0  0  0  0  0  0  0  0
  -12.0192  -30.4212   14.9473 H   0  0  0  0  0  0  0  0  0  0  0  0
  -13.5802  -31.6431   19.2684 H   0  0  0  0  0  0  0  0  0  0  0  0
  -12.1947  -30.5680   19.4989 H   0  0  0  0  0  0  0  0  0  0  0  0
  -11.5736  -31.2212   21.6866 H   0  0  0  0  0  0  0  0  0  0  0  0
  -10.4043  -32.7117   23.2821 H   0  0  0  0  0  0  0  0  0  0  0  0
   -8.8460  -37.2341   22.4286 H   0  0  0  0  0  0  0  0  0  0  0  0
  -11.9208  -34.4383   18.8686 H   0  0  0  0  0  0  0  0  0  0  0  0
  -12.5177  -27.1855   13.4285 H   0  0  0  0  0  0  0  0  0  0  0  0
  -12.9482  -25.9413   16.1463 H   0  0  0  0  0  0  0  0  0  0  0  0
  -14.0701  -27.0090   15.3338 H   0  0  0  0  0  0  0  0  0  0  0  0
  -14.8028  -25.3815   13.9382 H   0  0  0  0  0  0  0  0  0  0  0  0
  -14.0212  -24.2294   14.9826 H   0  0  0  0  0  0  0  0  0  0  0  0
  -11.3955  -23.6485   13.9418 H   0  0  0  0  0  0  0  0  0  0  0  0
  -11.1691  -24.5120   12.4475 H   0  0  0  0  0  0  0  0  0  0  0  0
  -10.6555  -25.4532   15.1452 H   0  0  0  0  0  0  0  0  0  0  0  0
  -10.1715  -26.1445   13.6245 H   0  0  0  0  0  0  0  0  0  0  0  0
  1  2  1  0
  2  3  1  0
  3  4  1  0
  4  5  1  0
  5  6  1  0
  6  7  2  0
  6  8  1  0
  8  9  1  0
  9 10  2  0
 10 11  1  0
 11 12  2  0
 12 13  1  0
 13 14  2  0
 14 15  1  0
 15 16  1  0
 16 17  2  0
  3 18  1  0
 18 19  1  0
 19 20  1  0
 20 21  1  0
 21 22  1  0
 22 23  1  0
 17  9  1  0
 23 18  1  0
 16 12  1  0
  1 24  1  0
  1 25  1  0
  1 26  1  0
  3 27  1  0
  4 28  1  0
  4 29  1  0
  8 30  1  0
  8 31  1  0
 10 32  1  0
 11 33  1  0
 14 34  1  0
 17 35  1  0
 18 36  1  0
 19 37  1  0
 19 38  1  0
 20 39  1  0
 20 40  1  0
 22 41  1  0
 22 42  1  0
 23 43  1  0
 23 44  1  0
M  END
>  <Energy>  (791) 
134.31190556572369

>  <compound_id>  (791) 
23592

>  <target_id>  (791) 
1

>  <reference_id>  (791) 
68

>  <inspiration_ids>  (791) 
[68, 28]

>  <energy_score>  (791) 
-32.93601186376321

>  <distance_score>  (791) 
3.7937154756238716

>  <path>  (791) 
/opt/xchem-fragalysis-2/maxwin/BulkDock/SCRATCH/511023/C23592-P68/C23592-P68.minimised.mol

>  <scratch_subdir>  (791) 
/opt/xchem-fragalysis-2/maxwin/BulkDock/SCRATCH/511023/C23592-P68

>  <fragmenstein_runtime>  (791) 
6.045148134231567

>  <fragmenstein_outcome>  (791) 
too moved

>  <fragmenstein_mode>  (791) 
expansion

>  <fragmenstein_error>  (791) 


$$$$
C23592-P28
     RDKit          3D

 44 46  0  0  0  0  0  0  0  0999 V2000
  -12.5338  -28.1835   12.6515 C   0  0  0  0  0  0  0  0  0  0  0  0
  -12.4270  -27.6992   13.9862 O   0  0  0  0  0  0  0  0  0  0  0  0
  -11.4704  -28.4094   14.8104 C   0  0  0  0  0  0  0  0  0  0  0  0
  -12.1402  -28.8647   16.3200 C   0  0  0  0  0  0  0  0  0  0  0  0
  -12.1714  -30.3793   16.7609 O   0  0  0  0  0  0  0  0  0  0  0  0
  -12.5773  -30.7593   18.1037 C   0  0  0  0  0  0  0  0  0  0  0  0
  -12.9616  -29.9207   18.9134 O   0  0  0  0  0  0  0  0  0  0  0  0
  -12.5330  -32.3506   18.4259 C   0  0  0  0  0  0  0  0  0  0  0  0
  -12.0932  -33.1005   19.8230 C   0  0  0  0  0  0  0  0  0  0  0  0
  -11.9901  -32.5433   21.1059 C   0  0  0  0  0  0  0  0  0  0  0  0
  -11.3547  -33.2377   22.2010 C   0  0  0  0  0  0  0  0  0  0  0  0
  -10.7509  -34.5086   22.0397 C   0  0  0  0  0  0  0  0  0  0  0  0
   -9.9544  -35.2066   22.9553 N   0  0  0  0  0  0  0  0  0  0  0  0
   -9.5282  -36.3214   22.4042 C   0  0  0  0  0  0  0  0  0  0  0  0
  -10.1069  -36.6464   20.8224 S   0  0  0  0  0  0  0  0  0  0  0  0
  -10.9405  -35.1222   20.8028 C   0  0  0  0  0  0  0  0  0  0  0  0
  -11.6670  -34.4721   19.7414 C   0  0  0  0  0  0  0  0  0  0  0  0
  -10.2168  -27.4511   14.8584 C   0  0  0  0  0  0  0  0  0  0  0  0
   -9.2631  -27.6378   13.6568 C   0  0  0  0  0  0  0  0  0  0  0  0
   -9.4649  -26.6785   12.4781 C   0  0  0  0  0  0  0  0  0  0  0  0
   -9.6254  -25.3205   12.8726 O   0  0  0  0  0  0  0  0  0  0  0  0
  -10.7363  -25.1454   13.7402 C   0  0  0  0  0  0  0  0  0  0  0  0
  -10.5239  -25.9453   15.0162 C   0  0  0  0  0  0  0  0  0  0  0  0
  -12.8884  -27.3723   12.0110 H   0  0  0  0  0  0  0  0  0  0  0  0
  -11.5926  -28.5781   12.2649 H   0  0  0  0  0  0  0  0  0  0  0  0
  -13.2762  -28.9871   12.6339 H   0  0  0  0  0  0  0  0  0  0  0  0
  -11.1986  -29.3666   14.3470 H   0  0  0  0  0  0  0  0  0  0  0  0
  -11.5920  -28.3433   17.1091 H   0  0  0  0  0  0  0  0  0  0  0  0
  -13.1912  -28.5598   16.3235 H   0  0  0  0  0  0  0  0  0  0  0  0
  -11.8581  -32.7659   17.6660 H   0  0  0  0  0  0  0  0  0  0  0  0
  -13.5433  -32.7200   18.2101 H   0  0  0  0  0  0  0  0  0  0  0  0
  -12.3255  -31.5213   21.2634 H   0  0  0  0  0  0  0  0  0  0  0  0
  -11.2553  -32.7436   23.1580 H   0  0  0  0  0  0  0  0  0  0  0  0
   -8.8710  -37.0085   22.9198 H   0  0  0  0  0  0  0  0  0  0  0  0
  -11.7561  -34.9940   18.7892 H   0  0  0  0  0  0  0  0  0  0  0  0
   -9.6571  -27.7756   15.7472 H   0  0  0  0  0  0  0  0  0  0  0  0
   -9.2681  -28.6742   13.3013 H   0  0  0  0  0  0  0  0  0  0  0  0
   -8.2490  -27.4657   14.0381 H   0  0  0  0  0  0  0  0  0  0  0  0
   -8.5833  -26.7252   11.8292 H   0  0  0  0  0  0  0  0  0  0  0  0
  -10.3140  -26.9586   11.8531 H   0  0  0  0  0  0  0  0  0  0  0  0
  -11.6602  -25.4151   13.2211 H   0  0  0  0  0  0  0  0  0  0  0  0
  -10.7994  -24.0792   13.9784 H   0  0  0  0  0  0  0  0  0  0  0  0
  -11.3521  -25.7949   15.7153 H   0  0  0  0  0  0  0  0  0  0  0  0
   -9.6210  -25.5356   15.4648 H   0  0  0  0  0  0  0  0  0  0  0  0
  1  2  1  0
  2  3  1  0
  3  4  1  0
  4  5  1  0
  5  6  1  0
  6  7  2  0
  6  8  1  0
  8  9  1  0
  9 10  2  0
 10 11  1  0
 11 12  2  0
 12 13  1  0
 13 14  2  0
 14 15  1  0
 15 16  1  0
 16 17  2  0
  3 18  1  0
 18 19  1  0
 19 20  1  0
 20 21  1  0
 21 22  1  0
 22 23  1  0
 17  9  1  0
 23 18  1  0
 16 12  1  0
  1 24  1  0
  1 25  1  0
  1 26  1  0
  3 27  1  0
  4 28  1  0
  4 29  1  0
  8 30  1  0
  8 31  1  0
 10 32  1  0
 11 33  1  0
 14 34  1  0
 17 35  1  0
 18 36  1  0
 19 37  1  0
 19 38  1  0
 20 39  1  0
 20 40  1  0
 22 41  1  0
 22 42  1  0
 23 43  1  0
 23 44  1  0
M  END
>  <Energy>  (792) 
126.21212638551636

>  <compound_id>  (792) 
23592

>  <target_id>  (792) 
1

>  <reference_id>  (792) 
28

>  <inspiration_ids>  (792) 
[68, 28]

>  <energy_score>  (792) 
-41.0357910439684

>  <distance_score>  (792) 
3.804639383894869

>  <path>  (792) 
/opt/xchem-fragalysis-2/maxwin/BulkDock/SCRATCH/511023/C23592-P28/C23592-P28.minimised.mol

>  <scratch_subdir>  (792) 
/opt/xchem-fragalysis-2/maxwin/BulkDock/SCRATCH/511023/C23592-P28

>  <fragmenstein_runtime>  (792) 
5.312378168106079

>  <fragmenstein_outcome>  (792) 
too moved

>  <fragmenstein_mode>  (792) 
expansion

>  <fragmenstein_error>  (792) 


$$$$
C46756-P68
     RDKit          3D

 42 44  0  0  0  0  0  0  0  0999 V2000
  -12.3081  -27.4933   16.4738 C   0  0  0  0  0  0  0  0  0  0  0  0
  -12.6702  -28.8440   15.8003 C   0  0  0  0  0  0  0  0  0  0  0  0
  -11.7756  -28.9084   14.4547 C   0  0  0  0  0  0  0  0  0  0  0  0
  -11.8289  -27.7627   13.5088 N   0  0  0  0  0  0  0  0  0  0  0  0
  -10.8710  -27.9509   12.3809 C   0  0  0  0  0  0  0  0  0  0  0  0
  -11.4927  -28.4332   11.0539 C   0  0  0  0  0  0  0  0  0  0  0  0
  -12.5363  -29.3713   11.3065 O   0  0  0  0  0  0  0  0  0  0  0  0
  -13.6063  -28.7604   12.0373 C   0  0  0  0  0  0  0  0  0  0  0  0
  -13.1696  -27.5872   12.9373 C   0  0  0  0  0  0  0  0  0  0  0  0
  -12.6046  -30.1163   16.7054 N   0  0  0  0  0  0  0  0  0  0  0  0
  -12.6687  -30.2578   18.3276 C   0  0  0  0  0  0  0  0  0  0  0  0
  -12.8534  -29.4499   19.1421 O   0  0  0  0  0  0  0  0  0  0  0  0
  -12.2959  -31.8208   18.4786 N   0  0  0  0  0  0  0  0  0  0  0  0
  -12.0065  -32.5852   19.6353 C   0  0  0  0  0  0  0  0  0  0  0  0
  -11.5329  -32.2534   20.8315 N   0  0  0  0  0  0  0  0  0  0  0  0
  -11.1193  -33.3860   21.5751 C   0  0  0  0  0  0  0  0  0  0  0  0
  -10.5500  -33.4075   22.8717 C   0  0  0  0  0  0  0  0  0  0  0  0
  -10.1983  -34.6074   23.4939 C   0  0  0  0  0  0  0  0  0  0  0  0
  -10.3745  -35.8010   22.8150 C   0  0  0  0  0  0  0  0  0  0  0  0
  -10.9151  -35.8196   21.5237 C   0  0  0  0  0  0  0  0  0  0  0  0
  -11.2994  -34.6030   20.9312 C   0  0  0  0  0  0  0  0  0  0  0  0
  -12.0545  -34.3077   19.4063 S   0  0  0  0  0  0  0  0  0  0  0  0
  -12.5592  -26.6415   15.8349 H   0  0  0  0  0  0  0  0  0  0  0  0
  -12.8673  -27.3764   17.4072 H   0  0  0  0  0  0  0  0  0  0  0  0
  -11.2428  -27.4412   16.7155 H   0  0  0  0  0  0  0  0  0  0  0  0
  -13.7257  -28.8098   15.5082 H   0  0  0  0  0  0  0  0  0  0  0  0
  -12.0156  -29.8518   13.9481 H   0  0  0  0  0  0  0  0  0  0  0  0
  -10.7378  -29.0150   14.7992 H   0  0  0  0  0  0  0  0  0  0  0  0
  -10.3661  -26.9950   12.1958 H   0  0  0  0  0  0  0  0  0  0  0  0
  -10.0757  -28.6478   12.6747 H   0  0  0  0  0  0  0  0  0  0  0  0
  -11.8915  -27.5945   10.4701 H   0  0  0  0  0  0  0  0  0  0  0  0
  -10.7296  -28.9258   10.4428 H   0  0  0  0  0  0  0  0  0  0  0  0
  -14.0714  -29.5484   12.6391 H   0  0  0  0  0  0  0  0  0  0  0  0
  -14.3578  -28.4155   11.3183 H   0  0  0  0  0  0  0  0  0  0  0  0
  -13.9239  -27.4067   13.7110 H   0  0  0  0  0  0  0  0  0  0  0  0
  -13.1639  -26.6651   12.3399 H   0  0  0  0  0  0  0  0  0  0  0  0
  -12.5078  -31.0269   16.2869 H   0  0  0  0  0  0  0  0  0  0  0  0
  -12.2854  -32.2550   17.5768 H   0  0  0  0  0  0  0  0  0  0  0  0
  -10.3637  -32.4688   23.3720 H   0  0  0  0  0  0  0  0  0  0  0  0
   -9.7623  -34.5951   24.4908 H   0  0  0  0  0  0  0  0  0  0  0  0
  -10.0842  -36.7377   23.2875 H   0  0  0  0  0  0  0  0  0  0  0  0
  -11.0583  -36.7611   21.0012 H   0  0  0  0  0  0  0  0  0  0  0  0
  1  2  1  0
  2  3  1  0
  3  4  1  0
  4  5  1  0
  5  6  1  0
  6  7  1  0
  7  8  1  0
  8  9  1  0
  2 10  1  0
 10 11  1  0
 11 12  2  0
 11 13  1  0
 13 14  1  0
 14 15  2  0
 15 16  1  0
 16 17  2  0
 17 18  1  0
 18 19  2  0
 19 20  1  0
 20 21  2  0
 21 22  1  0
  9  4  1  0
 22 14  1  0
 21 16  1  0
  1 23  1  0
  1 24  1  0
  1 25  1  0
  2 26  1  0
  3 27  1  0
  3 28  1  0
  5 29  1  0
  5 30  1  0
  6 31  1  0
  6 32  1  0
  8 33  1  0
  8 34  1  0
  9 35  1  0
  9 36  1  0
 10 37  1  0
 13 38  1  0
 17 39  1  0
 18 40  1  0
 19 41  1  0
 20 42  1  0
M  END
>  <Energy>  (793) 
74.634189405599855

>  <compound_id>  (793) 
46756

>  <target_id>  (793) 
1

>  <reference_id>  (793) 
68

>  <inspiration_ids>  (793) 
[68, 28]

>  <energy_score>  (793) 
-42.372575075665566

>  <distance_score>  (793) 
5.178574801401358

>  <path>  (793) 
/opt/xchem-fragalysis-2/maxwin/BulkDock/SCRATCH/511023/C46756-P68/C46756-P68.minimised.mol

>  <scratch_subdir>  (793) 
/opt/xchem-fragalysis-2/maxwin/BulkDock/SCRATCH/511023/C46756-P68

>  <fragmenstein_runtime>  (793) 
5.4854724407196045

>  <fragmenstein_outcome>  (793) 
too moved

>  <fragmenstein_mode>  (793) 
expansion

>  <fragmenstein_error>  (793) 


$$$$
C46756-P28
     RDKit          3D

 42 44  0  0  0  0  0  0  0  0999 V2000
  -11.5865  -27.9672   16.2518 C   0  0  0  0  0  0  0  0  0  0  0  0
  -11.9463  -29.2661   15.4813 C   0  0  0  0  0  0  0  0  0  0  0  0
  -13.0172  -28.9089   14.3819 C   0  0  0  0  0  0  0  0  0  0  0  0
  -12.6220  -28.4138   13.0448 N   0  0  0  0  0  0  0  0  0  0  0  0
  -12.3373  -29.5157   12.1080 C   0  0  0  0  0  0  0  0  0  0  0  0
  -12.0310  -29.0012   10.7014 C   0  0  0  0  0  0  0  0  0  0  0  0
  -10.8986  -28.1340   10.7472 O   0  0  0  0  0  0  0  0  0  0  0  0
  -11.1865  -27.0057   11.5793 C   0  0  0  0  0  0  0  0  0  0  0  0
  -11.5309  -27.4310   13.0134 C   0  0  0  0  0  0  0  0  0  0  0  0
  -12.0852  -30.5480   16.3449 N   0  0  0  0  0  0  0  0  0  0  0  0
  -12.5652  -30.7281   17.8822 C   0  0  0  0  0  0  0  0  0  0  0  0
  -12.9796  -29.9437   18.6346 O   0  0  0  0  0  0  0  0  0  0  0  0
  -12.1983  -32.2952   18.1001 N   0  0  0  0  0  0  0  0  0  0  0  0
  -12.1993  -33.0822   19.2835 C   0  0  0  0  0  0  0  0  0  0  0  0
  -11.7941  -34.3549   19.3849 N   0  0  0  0  0  0  0  0  0  0  0  0
  -11.3980  -34.6864   20.7061 C   0  0  0  0  0  0  0  0  0  0  0  0
  -10.8029  -35.8841   21.1792 C   0  0  0  0  0  0  0  0  0  0  0  0
  -10.4220  -36.0171   22.5235 C   0  0  0  0  0  0  0  0  0  0  0  0
  -10.6379  -34.9800   23.4129 C   0  0  0  0  0  0  0  0  0  0  0  0
  -11.2430  -33.8037   22.9768 C   0  0  0  0  0  0  0  0  0  0  0  0
  -11.6033  -33.6697   21.6256 C   0  0  0  0  0  0  0  0  0  0  0  0
  -12.3274  -32.3257   20.8170 S   0  0  0  0  0  0  0  0  0  0  0  0
  -11.4276  -27.1030   15.6082 H   0  0  0  0  0  0  0  0  0  0  0  0
  -12.3822  -27.7182   16.9615 H   0  0  0  0  0  0  0  0  0  0  0  0
  -10.6686  -28.1127   16.8235 H   0  0  0  0  0  0  0  0  0  0  0  0
  -11.0398  -29.5324   14.9216 H   0  0  0  0  0  0  0  0  0  0  0  0
  -13.6919  -28.1550   14.8099 H   0  0  0  0  0  0  0  0  0  0  0  0
  -13.6611  -29.7892   14.2520 H   0  0  0  0  0  0  0  0  0  0  0  0
  -11.4825  -30.0981   12.4750 H   0  0  0  0  0  0  0  0  0  0  0  0
  -13.2008  -30.1880   12.0457 H   0  0  0  0  0  0  0  0  0  0  0  0
  -11.7826  -29.8400   10.0435 H   0  0  0  0  0  0  0  0  0  0  0  0
  -12.8879  -28.4750   10.2637 H   0  0  0  0  0  0  0  0  0  0  0  0
  -12.0043  -26.4271   11.1322 H   0  0  0  0  0  0  0  0  0  0  0  0
  -10.2987  -26.3648   11.5875 H   0  0  0  0  0  0  0  0  0  0  0  0
  -11.8180  -26.5335   13.5705 H   0  0  0  0  0  0  0  0  0  0  0  0
  -10.6241  -27.8523   13.4618 H   0  0  0  0  0  0  0  0  0  0  0  0
  -11.7033  -31.4148   16.0034 H   0  0  0  0  0  0  0  0  0  0  0  0
  -11.9401  -32.7080   17.2250 H   0  0  0  0  0  0  0  0  0  0  0  0
  -10.6275  -36.6935   20.4766 H   0  0  0  0  0  0  0  0  0  0  0  0
   -9.9545  -36.9398   22.8587 H   0  0  0  0  0  0  0  0  0  0  0  0
  -10.3436  -35.0820   24.4544 H   0  0  0  0  0  0  0  0  0  0  0  0
  -11.4458  -33.0075   23.6786 H   0  0  0  0  0  0  0  0  0  0  0  0
  1  2  1  0
  2  3  1  0
  3  4  1  0
  4  5  1  0
  5  6  1  0
  6  7  1  0
  7  8  1  0
  8  9  1  0
  2 10  1  0
 10 11  1  0
 11 12  2  0
 11 13  1  0
 13 14  1  0
 14 15  2  0
 15 16  1  0
 16 17  2  0
 17 18  1  0
 18 19  2  0
 19 20  1  0
 20 21  2  0
 21 22  1  0
  9  4  1  0
 22 14  1  0
 21 16  1  0
  1 23  1  0
  1 24  1  0
  1 25  1  0
  2 26  1  0
  3 27  1  0
  3 28  1  0
  5 29  1  0
  5 30  1  0
  6 31  1  0
  6 32  1  0
  8 33  1  0
  8 34  1  0
  9 35  1  0
  9 36  1  0
 10 37  1  0
 13 38  1  0
 17 39  1  0
 18 40  1  0
 19 41  1  0
 20 42  1  0
M  END
>  <Energy>  (794) 
67.477150058080568

>  <compound_id>  (794) 
46756

>  <target_id>  (794) 
1

>  <reference_id>  (794) 
28

>  <inspiration_ids>  (794) 
[68, 28]

>  <energy_score>  (794) 
-49.52961442318255

>  <distance_score>  (794) 
5.257911553649179

>  <path>  (794) 
/opt/xchem-fragalysis-2/maxwin/BulkDock/SCRATCH/511023/C46756-P28/C46756-P28.minimised.mol

>  <scratch_subdir>  (794) 
/opt/xchem-fragalysis-2/maxwin/BulkDock/SCRATCH/511023/C46756-P28

>  <fragmenstein_runtime>  (794) 
5.589718818664551

>  <fragmenstein_outcome>  (794) 
too moved

>  <fragmenstein_mode>  (794) 
expansion

>  <fragmenstein_error>  (794) 


$$$$
C23594-P68
     RDKit          3D

 43 45  0  0  0  0  0  0  0  0999 V2000
  -11.6101  -30.0066   13.7915 C   0  0  0  0  0  0  0  0  0  0  0  0
  -12.6364  -29.6211   14.8800 C   0  0  0  0  0  0  0  0  0  0  0  0
  -12.8780  -28.0359   14.7511 C   0  0  0  0  0  0  0  0  0  0  0  0
  -11.7147  -27.1488   14.2582 C   0  0  0  0  0  0  0  0  0  0  0  0
  -10.6937  -27.1188   15.3701 C   0  0  0  0  0  0  0  0  0  0  0  0
   -9.5558  -26.2634   14.9209 C   0  0  0  0  0  0  0  0  0  0  0  0
  -10.0026  -24.9266   14.6862 O   0  0  0  0  0  0  0  0  0  0  0  0
  -10.9001  -24.8412   13.5877 C   0  0  0  0  0  0  0  0  0  0  0  0
  -12.1228  -25.7119   13.8565 C   0  0  0  0  0  0  0  0  0  0  0  0
  -12.3809  -30.2363   16.2750 N   0  0  0  0  0  0  0  0  0  0  0  0
  -12.5361  -31.7815   16.7923 C   0  0  0  0  0  0  0  0  0  0  0  0
  -12.7960  -32.7466   16.1986 O   0  0  0  0  0  0  0  0  0  0  0  0
  -12.1462  -31.5899   18.3457 N   0  0  0  0  0  0  0  0  0  0  0  0
  -11.9275  -32.5593   19.3669 C   0  0  0  0  0  0  0  0  0  0  0  0
  -11.9494  -33.8846   19.4632 N   0  0  0  0  0  0  0  0  0  0  0  0
  -11.4142  -34.3611   20.7057 C   0  0  0  0  0  0  0  0  0  0  0  0
  -11.2624  -35.6904   21.1795 C   0  0  0  0  0  0  0  0  0  0  0  0
  -11.6436  -36.7231   20.4124 F   0  0  0  0  0  0  0  0  0  0  0  0
  -10.7286  -35.9680   22.4459 C   0  0  0  0  0  0  0  0  0  0  0  0
  -10.3189  -34.9338   23.2673 C   0  0  0  0  0  0  0  0  0  0  0  0
  -10.4467  -33.6162   22.8346 C   0  0  0  0  0  0  0  0  0  0  0  0
  -10.9962  -33.3542   21.5645 C   0  0  0  0  0  0  0  0  0  0  0  0
  -11.3006  -31.8378   20.8218 S   0  0  0  0  0  0  0  0  0  0  0  0
  -10.5971  -29.6783   14.0371 H   0  0  0  0  0  0  0  0  0  0  0  0
  -11.9009  -29.6312   12.8055 H   0  0  0  0  0  0  0  0  0  0  0  0
  -11.5631  -31.0995   13.7172 H   0  0  0  0  0  0  0  0  0  0  0  0
  -13.5860  -30.0953   14.5988 H   0  0  0  0  0  0  0  0  0  0  0  0
  -13.2750  -27.6664   15.7051 H   0  0  0  0  0  0  0  0  0  0  0  0
  -13.6918  -27.9192   14.0216 H   0  0  0  0  0  0  0  0  0  0  0  0
  -11.2665  -27.5832   13.3580 H   0  0  0  0  0  0  0  0  0  0  0  0
  -10.3222  -28.1172   15.6088 H   0  0  0  0  0  0  0  0  0  0  0  0
  -11.1380  -26.7012   16.2828 H   0  0  0  0  0  0  0  0  0  0  0  0
   -9.0629  -26.6620   14.0268 H   0  0  0  0  0  0  0  0  0  0  0  0
   -8.8490  -26.2880   15.7443 H   0  0  0  0  0  0  0  0  0  0  0  0
  -10.3853  -25.1541   12.6718 H   0  0  0  0  0  0  0  0  0  0  0  0
  -11.1957  -23.7957   13.4603 H   0  0  0  0  0  0  0  0  0  0  0  0
  -12.7682  -25.7349   12.9713 H   0  0  0  0  0  0  0  0  0  0  0  0
  -12.7147  -25.2816   14.6702 H   0  0  0  0  0  0  0  0  0  0  0  0
  -12.2282  -29.6245   17.0640 H   0  0  0  0  0  0  0  0  0  0  0  0
  -11.9010  -30.6322   18.5183 H   0  0  0  0  0  0  0  0  0  0  0  0
  -10.6343  -37.0029   22.7627 H   0  0  0  0  0  0  0  0  0  0  0  0
   -9.8949  -35.1467   24.2468 H   0  0  0  0  0  0  0  0  0  0  0  0
  -10.1322  -32.8046   23.4830 H   0  0  0  0  0  0  0  0  0  0  0  0
  1  2  1  0
  2  3  1  0
  3  4  1  0
  4  5  1  0
  5  6  1  0
  6  7  1  0
  7  8  1  0
  8  9  1  0
  2 10  1  0
 10 11  1  0
 11 12  2  0
 11 13  1  0
 13 14  1  0
 14 15  2  0
 15 16  1  0
 16 17  2  0
 17 18  1  0
 17 19  1  0
 19 20  2  0
 20 21  1  0
 21 22  2  0
 22 23  1  0
  9  4  1  0
 23 14  1  0
 22 16  1  0
  1 24  1  0
  1 25  1  0
  1 26  1  0
  2 27  1  0
  3 28  1  0
  3 29  1  0
  4 30  1  0
  5 31  1  0
  5 32  1  0
  6 33  1  0
  6 34  1  0
  8 35  1  0
  8 36  1  0
  9 37  1  0
  9 38  1  0
 10 39  1  0
 13 40  1  0
 19 41  1  0
 20 42  1  0
 21 43  1  0
M  END
>  <Energy>  (795) 
18.463350850451707

>  <compound_id>  (795) 
23594

>  <target_id>  (795) 
1

>  <reference_id>  (795) 
68

>  <inspiration_ids>  (795) 
[68, 28]

>  <energy_score>  (795) 
2.420387281328999

>  <distance_score>  (795) 
5.063973000904521

>  <path>  (795) 
/opt/xchem-fragalysis-2/maxwin/BulkDock/SCRATCH/511023/C23594-P68/C23594-P68.minimised.mol

>  <scratch_subdir>  (795) 
/opt/xchem-fragalysis-2/maxwin/BulkDock/SCRATCH/511023/C23594-P68

>  <fragmenstein_runtime>  (795) 
8.489789962768555

>  <fragmenstein_outcome>  (795) 
too moved

>  <fragmenstein_mode>  (795) 
expansion

>  <fragmenstein_error>  (795) 


$$$$
C23594-P28
     RDKit          3D

 43 45  0  0  0  0  0  0  0  0999 V2000
   -5.4692  -31.9028   15.8397 C   0  0  0  0  0  0  0  0  0  0  0  0
   -5.2511  -30.7784   16.8510 C   0  0  0  0  0  0  0  0  0  0  0  0
   -5.4705  -29.3666   16.1542 C   0  0  0  0  0  0  0  0  0  0  0  0
   -6.3712  -29.2333   14.8791 C   0  0  0  0  0  0  0  0  0  0  0  0
   -7.8096  -28.8081   15.1937 C   0  0  0  0  0  0  0  0  0  0  0  0
   -8.5541  -28.1843   14.0178 C   0  0  0  0  0  0  0  0  0  0  0  0
   -7.9673  -28.5371   12.7763 O   0  0  0  0  0  0  0  0  0  0  0  0
   -6.6377  -28.0439   12.6345 C   0  0  0  0  0  0  0  0  0  0  0  0
   -5.7650  -28.2393   13.8790 C   0  0  0  0  0  0  0  0  0  0  0  0
   -6.1076  -30.9583   18.0470 N   0  0  0  0  0  0  0  0  0  0  0  0
   -7.5640  -31.2043   18.1648 C   0  0  0  0  0  0  0  0  0  0  0  0
   -8.3896  -31.4004   17.3115 O   0  0  0  0  0  0  0  0  0  0  0  0
   -7.8966  -31.0073   19.9380 N   0  0  0  0  0  0  0  0  0  0  0  0
   -9.5040  -30.9257   20.8732 C   0  0  0  0  0  0  0  0  0  0  0  0
  -10.7798  -30.7003   20.5355 N   0  0  0  0  0  0  0  0  0  0  0  0
  -11.7529  -31.6809   20.8808 C   0  0  0  0  0  0  0  0  0  0  0  0
  -13.0395  -31.8170   20.3188 C   0  0  0  0  0  0  0  0  0  0  0  0
  -13.4377  -30.9970   19.3337 F   0  0  0  0  0  0  0  0  0  0  0  0
  -13.9376  -32.7891   20.7708 C   0  0  0  0  0  0  0  0  0  0  0  0
  -13.5726  -33.6619   21.7829 C   0  0  0  0  0  0  0  0  0  0  0  0
  -12.2961  -33.5886   22.3314 C   0  0  0  0  0  0  0  0  0  0  0  0
  -11.4066  -32.6096   21.8431 C   0  0  0  0  0  0  0  0  0  0  0  0
   -9.7744  -32.4576   22.2535 S   0  0  0  0  0  0  0  0  0  0  0  0
   -4.8457  -31.7598   14.9508 H   0  0  0  0  0  0  0  0  0  0  0  0
   -6.5149  -31.9942   15.5314 H   0  0  0  0  0  0  0  0  0  0  0  0
   -5.1904  -32.8677   16.2719 H   0  0  0  0  0  0  0  0  0  0  0  0
   -4.2096  -30.7859   17.1645 H   0  0  0  0  0  0  0  0  0  0  0  0
   -4.4584  -29.0660   15.8449 H   0  0  0  0  0  0  0  0  0  0  0  0
   -5.7607  -28.6243   16.9082 H   0  0  0  0  0  0  0  0  0  0  0  0
   -6.4166  -30.1860   14.3440 H   0  0  0  0  0  0  0  0  0  0  0  0
   -7.8424  -28.0933   16.0218 H   0  0  0  0  0  0  0  0  0  0  0  0
   -8.3681  -29.6936   15.5091 H   0  0  0  0  0  0  0  0  0  0  0  0
   -8.5948  -27.0944   14.1049 H   0  0  0  0  0  0  0  0  0  0  0  0
   -9.5936  -28.5298   14.0133 H   0  0  0  0  0  0  0  0  0  0  0  0
   -6.6696  -26.9924   12.3317 H   0  0  0  0  0  0  0  0  0  0  0  0
   -6.1934  -28.5895   11.7947 H   0  0  0  0  0  0  0  0  0  0  0  0
   -5.5946  -27.2839   14.3805 H   0  0  0  0  0  0  0  0  0  0  0  0
   -4.7689  -28.5726   13.5612 H   0  0  0  0  0  0  0  0  0  0  0  0
   -5.7336  -30.7515   18.9596 H   0  0  0  0  0  0  0  0  0  0  0  0
   -7.0516  -30.9416   20.4208 H   0  0  0  0  0  0  0  0  0  0  0  0
  -14.9195  -32.8527   20.3100 H   0  0  0  0  0  0  0  0  0  0  0  0
  -14.2709  -34.4229   22.1243 H   0  0  0  0  0  0  0  0  0  0  0  0
  -11.9799  -34.3034   23.0867 H   0  0  0  0  0  0  0  0  0  0  0  0
  1  2  1  0
  2  3  1  0
  3  4  1  0
  4  5  1  0
  5  6  1  0
  6  7  1  0
  7  8  1  0
  8  9  1  0
  2 10  1  0
 10 11  1  0
 11 12  2  0
 11 13  1  0
 13 14  1  0
 14 15  2  0
 15 16  1  0
 16 17  2  0
 17 18  1  0
 17 19  1  0
 19 20  2  0
 20 21  1  0
 21 22  2  0
 22 23  1  0
  9  4  1  0
 23 14  1  0
 22 16  1  0
  1 24  1  0
  1 25  1  0
  1 26  1  0
  2 27  1  0
  3 28  1  0
  3 29  1  0
  4 30  1  0
  5 31  1  0
  5 32  1  0
  6 33  1  0
  6 34  1  0
  8 35  1  0
  8 36  1  0
  9 37  1  0
  9 38  1  0
 10 39  1  0
 13 40  1  0
 19 41  1  0
 20 42  1  0
 21 43  1  0
M  END
>  <Energy>  (796) 
149.97051151138612

>  <compound_id>  (796) 
23594

>  <target_id>  (796) 
1

>  <reference_id>  (796) 
28

>  <inspiration_ids>  (796) 
[68, 28]

>  <energy_score>  (796) 
108.25646449153388

>  <distance_score>  (796) 
7.078503018904775

>  <path>  (796) 
/opt/xchem-fragalysis-2/maxwin/BulkDock/SCRATCH/511023/C23594-P28/C23594-P28.minimised.mol

>  <scratch_subdir>  (796) 
/opt/xchem-fragalysis-2/maxwin/BulkDock/SCRATCH/511023/C23594-P28

>  <fragmenstein_runtime>  (796) 
9.621144771575928

>  <fragmenstein_outcome>  (796) 
too moved

>  <fragmenstein_mode>  (796) 
expansion

>  <fragmenstein_error>  (796) 


$$$$
C46760-P68
     RDKit          3D

 48 50  0  0  0  0  0  0  0  0999 V2000
  -11.0616  -26.0197   15.0274 C   0  0  0  0  0  0  0  0  0  0  0  0
  -11.9090  -27.2978   14.7805 C   0  0  0  0  0  0  0  0  0  0  0  0
  -13.3870  -26.8820   14.8254 C   0  0  0  0  0  0  0  0  0  0  0  0
  -11.4236  -27.8696   13.3977 C   0  0  0  0  0  0  0  0  0  0  0  0
  -11.6359  -27.0495   12.1776 N   0  0  0  0  0  0  0  0  0  0  0  0
  -10.7242  -27.5126   11.0941 C   0  0  0  0  0  0  0  0  0  0  0  0
  -11.2882  -28.6228   10.1778 C   0  0  0  0  0  0  0  0  0  0  0  0
  -12.2445  -29.4381   10.8562 O   0  0  0  0  0  0  0  0  0  0  0  0
  -13.3666  -28.6560   11.2824 C   0  0  0  0  0  0  0  0  0  0  0  0
  -13.0016  -27.2027   11.6501 C   0  0  0  0  0  0  0  0  0  0  0  0
  -11.6619  -28.2668   15.9393 N   0  0  0  0  0  0  0  0  0  0  0  0
  -12.6226  -29.5049   16.2380 C   0  0  0  0  0  0  0  0  0  0  0  0
  -12.6735  -30.0141   17.9015 C   0  0  0  0  0  0  0  0  0  0  0  0
  -12.8700  -29.1768   18.7217 O   0  0  0  0  0  0  0  0  0  0  0  0
  -12.3303  -31.5837   18.0731 N   0  0  0  0  0  0  0  0  0  0  0  0
  -12.0794  -32.3563   19.2553 C   0  0  0  0  0  0  0  0  0  0  0  0
  -11.9555  -33.6868   19.3497 N   0  0  0  0  0  0  0  0  0  0  0  0
  -11.4396  -34.1170   20.6026 C   0  0  0  0  0  0  0  0  0  0  0  0
  -11.2115  -35.4405   21.0632 C   0  0  0  0  0  0  0  0  0  0  0  0
  -10.6731  -35.6813   22.3366 C   0  0  0  0  0  0  0  0  0  0  0  0
  -10.3286  -34.6199   23.1529 C   0  0  0  0  0  0  0  0  0  0  0  0
  -10.5341  -33.3109   22.7184 C   0  0  0  0  0  0  0  0  0  0  0  0
  -11.1103  -33.0790   21.4569 C   0  0  0  0  0  0  0  0  0  0  0  0
  -11.5493  -31.5918   20.7003 S   0  0  0  0  0  0  0  0  0  0  0  0
  -11.2901  -25.6217   16.0173 H   0  0  0  0  0  0  0  0  0  0  0  0
  -11.2650  -25.2392   14.2869 H   0  0  0  0  0  0  0  0  0  0  0  0
   -9.9884  -26.2413   15.0069 H   0  0  0  0  0  0  0  0  0  0  0  0
  -14.0435  -27.6707   14.4449 H   0  0  0  0  0  0  0  0  0  0  0  0
  -13.7029  -26.6496   15.8503 H   0  0  0  0  0  0  0  0  0  0  0  0
  -13.5686  -25.9699   14.2473 H   0  0  0  0  0  0  0  0  0  0  0  0
  -11.8336  -28.8797   13.2860 H   0  0  0  0  0  0  0  0  0  0  0  0
  -10.3422  -28.0308   13.5198 H   0  0  0  0  0  0  0  0  0  0  0  0
  -10.4769  -26.6492   10.4627 H   0  0  0  0  0  0  0  0  0  0  0  0
   -9.7589  -27.8336   11.5053 H   0  0  0  0  0  0  0  0  0  0  0  0
  -10.4742  -29.2696    9.8348 H   0  0  0  0  0  0  0  0  0  0  0  0
  -11.7610  -28.1907    9.2871 H   0  0  0  0  0  0  0  0  0  0  0  0
  -14.1122  -28.6597   10.4793 H   0  0  0  0  0  0  0  0  0  0  0  0
  -13.8124  -29.1705   12.1402 H   0  0  0  0  0  0  0  0  0  0  0  0
  -13.7676  -26.7852   12.3044 H   0  0  0  0  0  0  0  0  0  0  0  0
  -13.0792  -26.5853   10.7432 H   0  0  0  0  0  0  0  0  0  0  0  0
  -11.6937  -27.7219   16.8082 H   0  0  0  0  0  0  0  0  0  0  0  0
  -12.2893  -30.3447   15.6233 H   0  0  0  0  0  0  0  0  0  0  0  0
  -13.6547  -29.2401   15.9975 H   0  0  0  0  0  0  0  0  0  0  0  0
  -12.1423  -31.9910   17.1689 H   0  0  0  0  0  0  0  0  0  0  0  0
  -11.4624  -36.2707   20.4090 H   0  0  0  0  0  0  0  0  0  0  0  0
  -10.5082  -36.7041   22.6670 H   0  0  0  0  0  0  0  0  0  0  0  0
   -9.8879  -34.8017   24.1313 H   0  0  0  0  0  0  0  0  0  0  0  0
  -10.2448  -32.4846   23.3545 H   0  0  0  0  0  0  0  0  0  0  0  0
  1  2  1  0
  2  3  1  0
  2  4  1  0
  4  5  1  0
  5  6  1  0
  6  7  1  0
  7  8  1  0
  8  9  1  0
  9 10  1  0
  2 11  1  0
 11 12  1  0
 12 13  1  0
 13 14  2  0
 13 15  1  0
 15 16  1  0
 16 17  2  0
 17 18  1  0
 18 19  2  0
 19 20  1  0
 20 21  2  0
 21 22  1  0
 22 23  2  0
 23 24  1  0
 10  5  1  0
 24 16  1  0
 23 18  1  0
  1 25  1  0
  1 26  1  0
  1 27  1  0
  3 28  1  0
  3 29  1  0
  3 30  1  0
  4 31  1  0
  4 32  1  0
  6 33  1  0
  6 34  1  0
  7 35  1  0
  7 36  1  0
  9 37  1  0
  9 38  1  0
 10 39  1  0
 10 40  1  0
 11 41  1  0
 12 42  1  0
 12 43  1  0
 15 44  1  0
 19 45  1  0
 20 46  1  0
 21 47  1  0
 22 48  1  0
M  END
>  <Energy>  (797) 
172.95581129904429

>  <compound_id>  (797) 
46760

>  <target_id>  (797) 
1

>  <reference_id>  (797) 
68

>  <inspiration_ids>  (797) 
[68, 28]

>  <energy_score>  (797) 
-36.93373498373694

>  <distance_score>  (797) 
4.683815500609979

>  <path>  (797) 
/opt/xchem-fragalysis-2/maxwin/BulkDock/SCRATCH/511023/C46760-P68/C46760-P68.minimised.mol

>  <scratch_subdir>  (797) 
/opt/xchem-fragalysis-2/maxwin/BulkDock/SCRATCH/511023/C46760-P68

>  <fragmenstein_runtime>  (797) 
11.839637994766235

>  <fragmenstein_outcome>  (797) 
too moved

>  <fragmenstein_mode>  (797) 
expansion

>  <fragmenstein_error>  (797) 


$$$$
C46760-P28
     RDKit          3D

 48 50  0  0  0  0  0  0  0  0999 V2000
   -8.0796  -28.3247   15.5378 C   0  0  0  0  0  0  0  0  0  0  0  0
   -7.1498  -29.5862   15.4334 C   0  0  0  0  0  0  0  0  0  0  0  0
   -7.9700  -30.8909   15.4368 C   0  0  0  0  0  0  0  0  0  0  0  0
   -6.5319  -29.4405   13.9628 C   0  0  0  0  0  0  0  0  0  0  0  0
   -7.5741  -29.4220   12.9116 N   0  0  0  0  0  0  0  0  0  0  0  0
   -7.7353  -28.1787   12.1645 C   0  0  0  0  0  0  0  0  0  0  0  0
   -9.0928  -28.1817   11.4202 C   0  0  0  0  0  0  0  0  0  0  0  0
   -9.5065  -29.4672   10.9269 O   0  0  0  0  0  0  0  0  0  0  0  0
   -8.3886  -30.3303   10.7144 C   0  0  0  0  0  0  0  0  0  0  0  0
   -7.5953  -30.5807   12.0167 C   0  0  0  0  0  0  0  0  0  0  0  0
   -6.0480  -29.5461   16.4949 N   0  0  0  0  0  0  0  0  0  0  0  0
   -5.8646  -30.6706   17.6639 C   0  0  0  0  0  0  0  0  0  0  0  0
   -6.5317  -30.1208   19.1570 C   0  0  0  0  0  0  0  0  0  0  0  0
   -6.0960  -29.1245   19.6842 O   0  0  0  0  0  0  0  0  0  0  0  0
   -7.7658  -31.0289   19.5366 N   0  0  0  0  0  0  0  0  0  0  0  0
   -9.0656  -30.8312   20.8187 C   0  0  0  0  0  0  0  0  0  0  0  0
  -10.4185  -30.6283   20.6476 N   0  0  0  0  0  0  0  0  0  0  0  0
  -11.4563  -31.5429   21.0036 C   0  0  0  0  0  0  0  0  0  0  0  0
  -12.7524  -31.5770   20.4539 C   0  0  0  0  0  0  0  0  0  0  0  0
  -13.7083  -32.4873   20.9270 C   0  0  0  0  0  0  0  0  0  0  0  0
  -13.3862  -33.3820   21.9359 C   0  0  0  0  0  0  0  0  0  0  0  0
  -12.0910  -33.4172   22.4425 C   0  0  0  0  0  0  0  0  0  0  0  0
  -11.1496  -32.5145   21.9131 C   0  0  0  0  0  0  0  0  0  0  0  0
   -9.4852  -32.5851   22.0989 S   0  0  0  0  0  0  0  0  0  0  0  0
   -8.6446  -28.2219   16.4564 H   0  0  0  0  0  0  0  0  0  0  0  0
   -7.4814  -27.4163   15.4383 H   0  0  0  0  0  0  0  0  0  0  0  0
   -8.8473  -28.3156   14.7575 H   0  0  0  0  0  0  0  0  0  0  0  0
   -8.3938  -31.1315   16.4061 H   0  0  0  0  0  0  0  0  0  0  0  0
   -8.8249  -30.8345   14.7544 H   0  0  0  0  0  0  0  0  0  0  0  0
   -7.3530  -31.7438   15.1313 H   0  0  0  0  0  0  0  0  0  0  0  0
   -5.8289  -30.2680   13.7981 H   0  0  0  0  0  0  0  0  0  0  0  0
   -5.9255  -28.5257   13.9150 H   0  0  0  0  0  0  0  0  0  0  0  0
   -7.7106  -27.3017   12.8162 H   0  0  0  0  0  0  0  0  0  0  0  0
   -6.9127  -28.0628   11.4472 H   0  0  0  0  0  0  0  0  0  0  0  0
   -9.0537  -27.4873   10.5739 H   0  0  0  0  0  0  0  0  0  0  0  0
   -9.8862  -27.8370   12.0925 H   0  0  0  0  0  0  0  0  0  0  0  0
   -8.7628  -31.2803   10.3193 H   0  0  0  0  0  0  0  0  0  0  0  0
   -7.7446  -29.8870    9.9446 H   0  0  0  0  0  0  0  0  0  0  0  0
   -6.5829  -30.8968   11.7369 H   0  0  0  0  0  0  0  0  0  0  0  0
   -8.0593  -31.4185   12.5483 H   0  0  0  0  0  0  0  0  0  0  0  0
   -6.2271  -28.7020   17.0499 H   0  0  0  0  0  0  0  0  0  0  0  0
   -4.8031  -30.7962   17.6596 H   0  0  0  0  0  0  0  0  0  0  0  0
   -6.3629  -31.5521   17.2874 H   0  0  0  0  0  0  0  0  0  0  0  0
   -7.7898  -31.8285   18.9268 H   0  0  0  0  0  0  0  0  0  0  0  0
  -12.9942  -30.8941   19.6443 H   0  0  0  0  0  0  0  0  0  0  0  0
  -14.7050  -32.4918   20.4911 H   0  0  0  0  0  0  0  0  0  0  0  0
  -14.1300  -34.0906   22.2933 H   0  0  0  0  0  0  0  0  0  0  0  0
  -11.7981  -34.1764   23.1619 H   0  0  0  0  0  0  0  0  0  0  0  0
  1  2  1  0
  2  3  1  0
  2  4  1  0
  4  5  1  0
  5  6  1  0
  6  7  1  0
  7  8  1  0
  8  9  1  0
  9 10  1  0
  2 11  1  0
 11 12  1  0
 12 13  1  0
 13 14  2  0
 13 15  1  0
 15 16  1  0
 16 17  2  0
 17 18  1  0
 18 19  2  0
 19 20  1  0
 20 21  2  0
 21 22  1  0
 22 23  2  0
 23 24  1  0
 10  5  1  0
 24 16  1  0
 23 18  1  0
  1 25  1  0
  1 26  1  0
  1 27  1  0
  3 28  1  0
  3 29  1  0
  3 30  1  0
  4 31  1  0
  4 32  1  0
  6 33  1  0
  6 34  1  0
  7 35  1  0
  7 36  1  0
  9 37  1  0
  9 38  1  0
 10 39  1  0
 10 40  1  0
 11 41  1  0
 12 42  1  0
 12 43  1  0
 15 44  1  0
 19 45  1  0
 20 46  1  0
 21 47  1  0
 22 48  1  0
M  END
>  <Energy>  (798) 
325.72801214061928

>  <compound_id>  (798) 
46760

>  <target_id>  (798) 
1

>  <reference_id>  (798) 
28

>  <inspiration_ids>  (798) 
[68, 28]

>  <energy_score>  (798) 
74.35848993602468

>  <distance_score>  (798) 
6.046492177856914

>  <path>  (798) 
/opt/xchem-fragalysis-2/maxwin/BulkDock/SCRATCH/511023/C46760-P28/C46760-P28.minimised.mol

>  <scratch_subdir>  (798) 
/opt/xchem-fragalysis-2/maxwin/BulkDock/SCRATCH/511023/C46760-P28

>  <fragmenstein_runtime>  (798) 
15.713995695114136

>  <fragmenstein_outcome>  (798) 
too moved

>  <fragmenstein_mode>  (798) 
expansion

>  <fragmenstein_error>  (798) 


$$$$
C23597-P68
     RDKit          3D

 39 41  0  0  0  0  0  0  0  0999 V2000
  -12.5071  -31.5774   16.4485 O   0  0  0  0  0  0  0  0  0  0  0  0
  -12.6030  -30.7810   17.3199 C   0  0  0  0  0  0  0  0  0  0  0  0
  -12.7561  -29.1620   16.8887 C   0  0  0  0  0  0  0  0  0  0  0  0
  -12.1399  -28.6546   15.4164 C   0  0  0  0  0  0  0  0  0  0  0  0
  -11.7294  -27.2459   15.3216 O   0  0  0  0  0  0  0  0  0  0  0  0
  -11.1117  -26.8735   14.0528 C   0  0  0  0  0  0  0  0  0  0  0  0
  -12.1711  -26.7335   12.9588 C   0  0  0  0  0  0  0  0  0  0  0  0
  -11.6106  -25.9525   11.7758 C   0  0  0  0  0  0  0  0  0  0  0  0
  -11.1282  -24.6457   12.0986 O   0  0  0  0  0  0  0  0  0  0  0  0
  -10.9615  -24.3907   13.4897 C   0  0  0  0  0  0  0  0  0  0  0  0
  -10.3063  -25.5653   14.1966 C   0  0  0  0  0  0  0  0  0  0  0  0
  -12.5458  -30.9743   18.9173 N   0  0  0  0  0  0  0  0  0  0  0  0
  -12.2703  -32.1417   19.7022 C   0  0  0  0  0  0  0  0  0  0  0  0
  -12.1212  -32.1979   21.0355 N   0  0  0  0  0  0  0  0  0  0  0  0
  -11.6642  -33.4737   21.4957 C   0  0  0  0  0  0  0  0  0  0  0  0
  -11.4996  -33.9968   22.8142 C   0  0  0  0  0  0  0  0  0  0  0  0
  -12.5028  -33.3327   24.2716 Br  0  0  0  0  0  0  0  0  0  0  0  0
  -10.7878  -35.1785   23.0470 C   0  0  0  0  0  0  0  0  0  0  0  0
  -10.3470  -35.9260   21.9701 C   0  0  0  0  0  0  0  0  0  0  0  0
  -10.6881  -35.5573   20.6651 C   0  0  0  0  0  0  0  0  0  0  0  0
  -11.3669  -34.3417   20.4529 C   0  0  0  0  0  0  0  0  0  0  0  0
  -12.0894  -33.6957   19.0007 S   0  0  0  0  0  0  0  0  0  0  0  0
  -12.3530  -28.5255   17.6821 H   0  0  0  0  0  0  0  0  0  0  0  0
  -13.8357  -28.9686   16.8599 H   0  0  0  0  0  0  0  0  0  0  0  0
  -11.2716  -29.2794   15.1859 H   0  0  0  0  0  0  0  0  0  0  0  0
  -12.9141  -28.8463   14.6662 H   0  0  0  0  0  0  0  0  0  0  0  0
  -10.4033  -27.6698   13.7904 H   0  0  0  0  0  0  0  0  0  0  0  0
  -12.5118  -27.7215   12.6301 H   0  0  0  0  0  0  0  0  0  0  0  0
  -13.0540  -26.2234   13.3644 H   0  0  0  0  0  0  0  0  0  0  0  0
  -12.3786  -25.8369   11.0042 H   0  0  0  0  0  0  0  0  0  0  0  0
  -10.7803  -26.5040   11.3200 H   0  0  0  0  0  0  0  0  0  0  0  0
  -11.9469  -24.1738   13.9096 H   0  0  0  0  0  0  0  0  0  0  0  0
  -10.3474  -23.4906   13.5931 H   0  0  0  0  0  0  0  0  0  0  0  0
   -9.3354  -25.7342   13.7184 H   0  0  0  0  0  0  0  0  0  0  0  0
  -10.1318  -25.3340   15.2472 H   0  0  0  0  0  0  0  0  0  0  0  0
  -12.5802  -30.0755   19.3684 H   0  0  0  0  0  0  0  0  0  0  0  0
  -10.6322  -35.5498   24.0570 H   0  0  0  0  0  0  0  0  0  0  0  0
   -9.8127  -36.8591   22.1403 H   0  0  0  0  0  0  0  0  0  0  0  0
  -10.4469  -36.2077   19.8283 H   0  0  0  0  0  0  0  0  0  0  0  0
  1  2  2  0
  2  3  1  0
  3  4  1  0
  4  5  1  0
  5  6  1  0
  6  7  1  0
  7  8  1  0
  8  9  1  0
  9 10  1  0
 10 11  1  0
  2 12  1  0
 12 13  1  0
 13 14  2  0
 14 15  1  0
 15 16  2  0
 16 17  1  0
 16 18  1  0
 18 19  2  0
 19 20  1  0
 20 21  2  0
 21 22  1  0
 11  6  1  0
 22 13  1  0
 21 15  1  0
  3 23  1  0
  3 24  1  0
  4 25  1  0
  4 26  1  0
  6 27  1  0
  7 28  1  0
  7 29  1  0
  8 30  1  0
  8 31  1  0
 10 32  1  0
 10 33  1  0
 11 34  1  0
 11 35  1  0
 12 36  1  0
 18 37  1  0
 19 38  1  0
 20 39  1  0
M  END
>  <Energy>  (799) 
55.271107126084246

>  <compound_id>  (799) 
23597

>  <target_id>  (799) 
1

>  <reference_id>  (799) 
68

>  <inspiration_ids>  (799) 
[68, 28]

>  <energy_score>  (799) 
-16.756407326109752

>  <distance_score>  (799) 
5.0502836127269966

>  <path>  (799) 
/opt/xchem-fragalysis-2/maxwin/BulkDock/SCRATCH/511023/C23597-P68/C23597-P68.minimised.mol

>  <scratch_subdir>  (799) 
/opt/xchem-fragalysis-2/maxwin/BulkDock/SCRATCH/511023/C23597-P68

>  <fragmenstein_runtime>  (799) 
3.7363829612731934

>  <fragmenstein_outcome>  (799) 
too moved

>  <fragmenstein_mode>  (799) 
expansion

>  <fragmenstein_error>  (799) 


$$$$
C23597-P28
     RDKit          3D

 39 41  0  0  0  0  0  0  0  0999 V2000
  -11.7407  -32.0857   16.0260 O   0  0  0  0  0  0  0  0  0  0  0  0
  -12.1426  -31.3120   16.8216 C   0  0  0  0  0  0  0  0  0  0  0  0
  -12.3698  -29.7150   16.4091 C   0  0  0  0  0  0  0  0  0  0  0  0
  -11.7508  -29.0541   15.0244 C   0  0  0  0  0  0  0  0  0  0  0  0
  -11.2622  -27.6870   15.1957 O   0  0  0  0  0  0  0  0  0  0  0  0
  -11.1422  -26.8596   14.0140 C   0  0  0  0  0  0  0  0  0  0  0  0
  -10.2033  -27.4215   12.9516 C   0  0  0  0  0  0  0  0  0  0  0  0
   -9.6312  -26.3112   12.0642 C   0  0  0  0  0  0  0  0  0  0  0  0
  -10.4908  -25.1689   12.0296 O   0  0  0  0  0  0  0  0  0  0  0  0
  -10.5743  -24.4991   13.2889 C   0  0  0  0  0  0  0  0  0  0  0  0
  -10.6303  -25.4818   14.4465 C   0  0  0  0  0  0  0  0  0  0  0  0
  -12.4467  -31.4963   18.3839 N   0  0  0  0  0  0  0  0  0  0  0  0
  -12.2235  -32.6136   19.2447 C   0  0  0  0  0  0  0  0  0  0  0  0
  -11.8958  -33.8996   19.1465 N   0  0  0  0  0  0  0  0  0  0  0  0
  -11.4899  -34.4677   20.4164 C   0  0  0  0  0  0  0  0  0  0  0  0
  -10.9801  -35.7588   20.7261 C   0  0  0  0  0  0  0  0  0  0  0  0
  -10.8289  -37.0672   19.3615 Br  0  0  0  0  0  0  0  0  0  0  0  0
  -10.5581  -36.0930   22.0275 C   0  0  0  0  0  0  0  0  0  0  0  0
  -10.6333  -35.1616   23.0468 C   0  0  0  0  0  0  0  0  0  0  0  0
  -11.1492  -33.8980   22.7859 C   0  0  0  0  0  0  0  0  0  0  0  0
  -11.5716  -33.5790   21.4800 C   0  0  0  0  0  0  0  0  0  0  0  0
  -12.2484  -32.1094   20.9106 S   0  0  0  0  0  0  0  0  0  0  0  0
  -13.4579  -29.5808   16.3630 H   0  0  0  0  0  0  0  0  0  0  0  0
  -12.0138  -29.1025   17.2438 H   0  0  0  0  0  0  0  0  0  0  0  0
  -10.9132  -29.6745   14.6914 H   0  0  0  0  0  0  0  0  0  0  0  0
  -12.5396  -29.0674   14.2647 H   0  0  0  0  0  0  0  0  0  0  0  0
  -12.1509  -26.7440   13.5970 H   0  0  0  0  0  0  0  0  0  0  0  0
   -9.3857  -28.0015   13.3958 H   0  0  0  0  0  0  0  0  0  0  0  0
  -10.7649  -28.1324   12.3329 H   0  0  0  0  0  0  0  0  0  0  0  0
   -9.5101  -26.6783   11.0398 H   0  0  0  0  0  0  0  0  0  0  0  0
   -8.6396  -26.0012   12.4122 H   0  0  0  0  0  0  0  0  0  0  0  0
  -11.4863  -23.8937   13.2643 H   0  0  0  0  0  0  0  0  0  0  0  0
   -9.7313  -23.8090   13.3917 H   0  0  0  0  0  0  0  0  0  0  0  0
   -9.6313  -25.6066   14.8771 H   0  0  0  0  0  0  0  0  0  0  0  0
  -11.2376  -25.0957   15.2643 H   0  0  0  0  0  0  0  0  0  0  0  0
  -12.7030  -30.6080   18.7865 H   0  0  0  0  0  0  0  0  0  0  0  0
  -10.1617  -37.0851   22.2318 H   0  0  0  0  0  0  0  0  0  0  0  0
  -10.2993  -35.4185   24.0490 H   0  0  0  0  0  0  0  0  0  0  0  0
  -11.2320  -33.1730   23.5867 H   0  0  0  0  0  0  0  0  0  0  0  0
  1  2  2  0
  2  3  1  0
  3  4  1  0
  4  5  1  0
  5  6  1  0
  6  7  1  0
  7  8  1  0
  8  9  1  0
  9 10  1  0
 10 11  1  0
  2 12  1  0
 12 13  1  0
 13 14  2  0
 14 15  1  0
 15 16  2  0
 16 17  1  0
 16 18  1  0
 18 19  2  0
 19 20  1  0
 20 21  2  0
 21 22  1  0
 11  6  1  0
 22 13  1  0
 21 15  1  0
  3 23  1  0
  3 24  1  0
  4 25  1  0
  4 26  1  0
  6 27  1  0
  7 28  1  0
  7 29  1  0
  8 30  1  0
  8 31  1  0
 10 32  1  0
 10 33  1  0
 11 34  1  0
 11 35  1  0
 12 36  1  0
 18 37  1  0
 19 38  1  0
 20 39  1  0
M  END
>  <Energy>  (800) 
49.823219851750402

>  <compound_id>  (800) 
23597

>  <target_id>  (800) 
1

>  <reference_id>  (800) 
28

>  <inspiration_ids>  (800) 
[68, 28]

>  <energy_score>  (800) 
-22.20429460044113

>  <distance_score>  (800) 
4.988643777568406

>  <path>  (800) 
/opt/xchem-fragalysis-2/maxwin/BulkDock/SCRATCH/511023/C23597-P28/C23597-P28.minimised.mol

>  <scratch_subdir>  (800) 
/opt/xchem-fragalysis-2/maxwin/BulkDock/SCRATCH/511023/C23597-P28

>  <fragmenstein_runtime>  (800) 
5.4962098598480225

>  <fragmenstein_outcome>  (800) 
too moved

>  <fragmenstein_mode>  (800) 
expansion

>  <fragmenstein_error>  (800) 


$$$$
C46778-P68
     RDKit          3D

 44 46  0  0  0  0  0  0  0  0999 V2000
  -12.9636  -33.6857   16.7026 C   0  0  0  0  0  0  0  0  0  0  0  0
  -12.8072  -32.1641   16.8531 C   0  0  0  0  0  0  0  0  0  0  0  0
  -12.6275  -31.8337   18.4454 C   0  0  0  0  0  0  0  0  0  0  0  0
  -11.9031  -32.8782   19.3490 N   0  0  0  0  0  0  0  0  0  0  0  0
  -12.3079  -33.1132   21.0123 S   0  0  0  0  0  0  0  0  0  0  0  0
  -12.2010  -31.8394   21.6940 O   0  0  0  0  0  0  0  0  0  0  0  0
  -13.5364  -33.8721   21.0631 O   0  0  0  0  0  0  0  0  0  0  0  0
  -11.0784  -34.1618   21.8311 C   0  0  0  0  0  0  0  0  0  0  0  0
  -10.9085  -34.0164   23.2191 C   0  0  0  0  0  0  0  0  0  0  0  0
   -9.9912  -34.7991   23.9401 C   0  0  0  0  0  0  0  0  0  0  0  0
   -9.2125  -35.7205   23.2262 C   0  0  0  0  0  0  0  0  0  0  0  0
   -7.9804  -36.7786   23.8013 S   0  0  0  0  0  0  0  0  0  0  0  0
   -7.7175  -37.3300   22.2076 C   0  0  0  0  0  0  0  0  0  0  0  0
   -8.4919  -36.8146   21.2773 N   0  0  0  0  0  0  0  0  0  0  0  0
   -9.3624  -35.8919   21.8462 C   0  0  0  0  0  0  0  0  0  0  0  0
  -10.3403  -35.1281   21.1490 C   0  0  0  0  0  0  0  0  0  0  0  0
  -11.8534  -31.6364   15.5955 C   0  0  0  0  0  0  0  0  0  0  0  0
  -11.8920  -30.2285   15.0912 N   0  0  0  0  0  0  0  0  0  0  0  0
  -10.6992  -29.8683   14.2751 C   0  0  0  0  0  0  0  0  0  0  0  0
  -10.8114  -28.4274   13.7175 C   0  0  0  0  0  0  0  0  0  0  0  0
  -11.9171  -28.2187   12.8333 O   0  0  0  0  0  0  0  0  0  0  0  0
  -12.8351  -29.3118   12.8458 C   0  0  0  0  0  0  0  0  0  0  0  0
  -13.0988  -29.8935   14.2702 C   0  0  0  0  0  0  0  0  0  0  0  0
  -13.3359  -33.9436   15.7054 H   0  0  0  0  0  0  0  0  0  0  0  0
  -13.6818  -34.0818   17.4284 H   0  0  0  0  0  0  0  0  0  0  0  0
  -12.0056  -34.1947   16.8471 H   0  0  0  0  0  0  0  0  0  0  0  0
  -13.7857  -31.7246   16.6092 H   0  0  0  0  0  0  0  0  0  0  0  0
  -13.6450  -31.7611   18.8523 H   0  0  0  0  0  0  0  0  0  0  0  0
  -12.1595  -30.8608   18.5819 H   0  0  0  0  0  0  0  0  0  0  0  0
  -10.9109  -32.8755   19.1283 H   0  0  0  0  0  0  0  0  0  0  0  0
  -11.5068  -33.2868   23.7633 H   0  0  0  0  0  0  0  0  0  0  0  0
   -9.8644  -34.6647   25.0114 H   0  0  0  0  0  0  0  0  0  0  0  0
   -6.9592  -38.0694   21.9845 H   0  0  0  0  0  0  0  0  0  0  0  0
  -10.4924  -35.3086   20.0914 H   0  0  0  0  0  0  0  0  0  0  0  0
  -12.0495  -32.2935   14.7370 H   0  0  0  0  0  0  0  0  0  0  0  0
  -10.8302  -31.8733   15.9095 H   0  0  0  0  0  0  0  0  0  0  0  0
  -10.5784  -30.5814   13.4494 H   0  0  0  0  0  0  0  0  0  0  0  0
   -9.7941  -29.9290   14.8879 H   0  0  0  0  0  0  0  0  0  0  0  0
   -9.8992  -28.1731   13.1676 H   0  0  0  0  0  0  0  0  0  0  0  0
  -10.9036  -27.7102   14.5413 H   0  0  0  0  0  0  0  0  0  0  0  0
  -13.7784  -28.9574   12.4173 H   0  0  0  0  0  0  0  0  0  0  0  0
  -12.4544  -30.0948   12.1793 H   0  0  0  0  0  0  0  0  0  0  0  0
  -13.6466  -29.1354   14.8429 H   0  0  0  0  0  0  0  0  0  0  0  0
  -13.7636  -30.7601   14.1758 H   0  0  0  0  0  0  0  0  0  0  0  0
  1  2  1  0
  2  3  1  0
  3  4  1  0
  4  5  1  0
  5  6  2  0
  5  7  2  0
  5  8  1  0
  8  9  2  0
  9 10  1  0
 10 11  2  0
 11 12  1  0
 12 13  1  0
 13 14  2  0
 14 15  1  0
 15 16  2  0
  2 17  1  0
 17 18  1  0
 18 19  1  0
 19 20  1  0
 20 21  1  0
 21 22  1  0
 22 23  1  0
 16  8  1  0
 23 18  1  0
 15 11  1  0
  1 24  1  0
  1 25  1  0
  1 26  1  0
  2 27  1  0
  3 28  1  0
  3 29  1  0
  4 30  1  0
  9 31  1  0
 10 32  1  0
 13 33  1  0
 16 34  1  0
 17 35  1  0
 17 36  1  0
 19 37  1  0
 19 38  1  0
 20 39  1  0
 20 40  1  0
 22 41  1  0
 22 42  1  0
 23 43  1  0
 23 44  1  0
M  END
>  <Energy>  (801) 
64.659224942769541

>  <compound_id>  (801) 
46778

>  <target_id>  (801) 
1

>  <reference_id>  (801) 
68

>  <inspiration_ids>  (801) 
[68, 28]

>  <energy_score>  (801) 
-52.313914804418175

>  <distance_score>  (801) 
2.3334879239836384

>  <path>  (801) 
/opt/xchem-fragalysis-2/maxwin/BulkDock/SCRATCH/511023/C46778-P68/C46778-P68.minimised.mol

>  <scratch_subdir>  (801) 
/opt/xchem-fragalysis-2/maxwin/BulkDock/SCRATCH/511023/C46778-P68

>  <fragmenstein_runtime>  (801) 
4.220868110656738

>  <fragmenstein_outcome>  (801) 
too moved

>  <fragmenstein_mode>  (801) 
expansion

>  <fragmenstein_error>  (801) 


$$$$
C46778-P28
     RDKit          3D

 44 46  0  0  0  0  0  0  0  0999 V2000
  -12.6089  -33.8101   16.5681 C   0  0  0  0  0  0  0  0  0  0  0  0
  -12.7789  -32.2948   16.7498 C   0  0  0  0  0  0  0  0  0  0  0  0
  -12.7679  -31.9645   18.3510 C   0  0  0  0  0  0  0  0  0  0  0  0
  -11.9330  -32.8956   19.2991 N   0  0  0  0  0  0  0  0  0  0  0  0
  -12.4388  -33.2171   20.9344 S   0  0  0  0  0  0  0  0  0  0  0  0
  -12.4283  -31.9575   21.6504 O   0  0  0  0  0  0  0  0  0  0  0  0
  -13.6280  -34.0344   20.8927 O   0  0  0  0  0  0  0  0  0  0  0  0
  -11.1998  -34.2302   21.7995 C   0  0  0  0  0  0  0  0  0  0  0  0
  -10.9799  -33.9827   23.1646 C   0  0  0  0  0  0  0  0  0  0  0  0
  -10.0303  -34.7023   23.9082 C   0  0  0  0  0  0  0  0  0  0  0  0
   -9.2869  -35.6876   23.2466 C   0  0  0  0  0  0  0  0  0  0  0  0
   -8.0244  -36.6899   23.8607 S   0  0  0  0  0  0  0  0  0  0  0  0
   -7.8294  -37.3768   22.3082 C   0  0  0  0  0  0  0  0  0  0  0  0
   -8.6542  -36.9524   21.3756 N   0  0  0  0  0  0  0  0  0  0  0  0
   -9.5025  -35.9805   21.8959 C   0  0  0  0  0  0  0  0  0  0  0  0
  -10.4958  -35.2585   21.1702 C   0  0  0  0  0  0  0  0  0  0  0  0
  -11.8752  -31.5427   15.5813 C   0  0  0  0  0  0  0  0  0  0  0  0
  -12.2106  -30.1682   15.1083 N   0  0  0  0  0  0  0  0  0  0  0  0
  -10.9924  -29.3754   14.7816 C   0  0  0  0  0  0  0  0  0  0  0  0
  -11.3266  -28.0556   14.0496 C   0  0  0  0  0  0  0  0  0  0  0  0
  -11.9158  -28.2448   12.7583 O   0  0  0  0  0  0  0  0  0  0  0  0
  -12.4940  -29.5446   12.6069 C   0  0  0  0  0  0  0  0  0  0  0  0
  -13.1167  -30.1131   13.9167 C   0  0  0  0  0  0  0  0  0  0  0  0
  -12.8595  -34.1104   15.5450 H   0  0  0  0  0  0  0  0  0  0  0  0
  -13.2723  -34.3649   17.2400 H   0  0  0  0  0  0  0  0  0  0  0  0
  -11.5773  -34.1162   16.7648 H   0  0  0  0  0  0  0  0  0  0  0  0
  -13.8089  -32.0586   16.4431 H   0  0  0  0  0  0  0  0  0  0  0  0
  -12.4818  -30.9240   18.5164 H   0  0  0  0  0  0  0  0  0  0  0  0
  -13.8077  -32.0750   18.6862 H   0  0  0  0  0  0  0  0  0  0  0  0
  -10.9640  -32.5350   19.3490 H   0  0  0  0  0  0  0  0  0  0  0  0
  -11.5625  -33.2158   23.6718 H   0  0  0  0  0  0  0  0  0  0  0  0
   -9.8523  -34.4685   24.9536 H   0  0  0  0  0  0  0  0  0  0  0  0
   -7.0730  -38.1256   22.1114 H   0  0  0  0  0  0  0  0  0  0  0  0
  -10.6701  -35.4963   20.1251 H   0  0  0  0  0  0  0  0  0  0  0  0
  -11.8380  -32.2033   14.7044 H   0  0  0  0  0  0  0  0  0  0  0  0
  -10.8533  -31.5531   15.9721 H   0  0  0  0  0  0  0  0  0  0  0  0
  -10.3132  -29.9705   14.1573 H   0  0  0  0  0  0  0  0  0  0  0  0
  -10.4697  -29.1363   15.7139 H   0  0  0  0  0  0  0  0  0  0  0  0
  -10.4144  -27.4662   13.9104 H   0  0  0  0  0  0  0  0  0  0  0  0
  -12.0157  -27.4504   14.6501 H   0  0  0  0  0  0  0  0  0  0  0  0
  -13.2660  -29.4735   11.8339 H   0  0  0  0  0  0  0  0  0  0  0  0
  -11.7205  -30.2244   12.2305 H   0  0  0  0  0  0  0  0  0  0  0  0
  -13.9420  -29.4490   14.2028 H   0  0  0  0  0  0  0  0  0  0  0  0
  -13.5634  -31.0937   13.7159 H   0  0  0  0  0  0  0  0  0  0  0  0
  1  2  1  0
  2  3  1  0
  3  4  1  0
  4  5  1  0
  5  6  2  0
  5  7  2  0
  5  8  1  0
  8  9  2  0
  9 10  1  0
 10 11  2  0
 11 12  1  0
 12 13  1  0
 13 14  2  0
 14 15  1  0
 15 16  2  0
  2 17  1  0
 17 18  1  0
 18 19  1  0
 19 20  1  0
 20 21  1  0
 21 22  1  0
 22 23  1  0
 16  8  1  0
 23 18  1  0
 15 11  1  0
  1 24  1  0
  1 25  1  0
  1 26  1  0
  2 27  1  0
  3 28  1  0
  3 29  1  0
  4 30  1  0
  9 31  1  0
 10 32  1  0
 13 33  1  0
 16 34  1  0
 17 35  1  0
 17 36  1  0
 19 37  1  0
 19 38  1  0
 20 39  1  0
 20 40  1  0
 22 41  1  0
 22 42  1  0
 23 43  1  0
 23 44  1  0
M  END
>  <Energy>  (802) 
63.734072454522355

>  <compound_id>  (802) 
46778

>  <target_id>  (802) 
1

>  <reference_id>  (802) 
28

>  <inspiration_ids>  (802) 
[68, 28]

>  <energy_score>  (802) 
-53.23906729266412

>  <distance_score>  (802) 
2.33674196744813

>  <path>  (802) 
/opt/xchem-fragalysis-2/maxwin/BulkDock/SCRATCH/511023/C46778-P28/C46778-P28.minimised.mol

>  <scratch_subdir>  (802) 
/opt/xchem-fragalysis-2/maxwin/BulkDock/SCRATCH/511023/C46778-P28

>  <fragmenstein_runtime>  (802) 
3.8261702060699463

>  <fragmenstein_outcome>  (802) 
too moved

>  <fragmenstein_mode>  (802) 
expansion

>  <fragmenstein_error>  (802) 


$$$$
C46480-P96
     RDKit          3D

 42 44  0  0  0  0  0  0  0  0999 V2000
    3.8203   -9.9474   29.8209 C   0  0  0  0  0  0  0  0  0  0  0  0
    4.3305   -9.9857   28.3640 C   0  0  0  0  0  0  0  0  0  0  0  0
    3.9059   -8.6951   27.6477 C   0  0  0  0  0  0  0  0  0  0  0  0
    5.8545  -10.0743   28.4680 C   0  0  0  0  0  0  0  0  0  0  0  0
    6.5472  -11.0800   28.4835 O   0  0  0  0  0  0  0  0  0  0  0  0
    6.4639   -8.8759   28.6238 O   0  0  0  0  0  0  0  0  0  0  0  0
    3.7882  -11.1448   27.6288 N   0  0  0  0  0  0  0  0  0  0  0  0
    4.3353  -11.8093   26.5667 C   0  0  0  0  0  0  0  0  0  0  0  0
    3.5737  -12.9515   26.4355 C   0  0  0  0  0  0  0  0  0  0  0  0
    2.4965  -12.8543   27.3788 C   0  0  0  0  0  0  0  0  0  0  0  0
    1.5007  -13.8150   27.5893 N   0  0  0  0  0  0  0  0  0  0  0  0
    0.4440  -13.8923   28.5898 C   0  0  0  0  0  0  0  0  0  0  0  0
    0.2086  -13.1915   29.5355 O   0  0  0  0  0  0  0  0  0  0  0  0
   -0.4669  -15.1117   28.3741 C   0  0  0  0  0  0  0  0  0  0  0  0
   -0.4314  -15.8495   27.2356 N   0  0  0  0  0  0  0  0  0  0  0  0
   -1.3976  -16.7912   27.3879 N   0  0  0  0  0  0  0  0  0  0  0  0
   -2.0450  -16.7238   28.5791 C   0  0  0  0  0  0  0  0  0  0  0  0
   -1.4742  -15.6676   29.2587 C   0  0  0  0  0  0  0  0  0  0  0  0
   -1.9356  -15.2891   30.6298 C   0  0  0  0  0  0  0  0  0  0  0  0
   -2.7693  -16.4171   31.2831 C   0  0  0  0  0  0  0  0  0  0  0  0
   -3.7959  -17.0210   30.3121 C   0  0  0  0  0  0  0  0  0  0  0  0
   -3.1262  -17.6312   29.0637 C   0  0  0  0  0  0  0  0  0  0  0  0
    2.5982  -11.6784   28.0108 N   0  0  0  0  0  0  0  0  0  0  0  0
    4.0583  -10.8786   30.3495 H   0  0  0  0  0  0  0  0  0  0  0  0
    2.7349   -9.8018   29.8686 H   0  0  0  0  0  0  0  0  0  0  0  0
    4.2842   -9.1288   30.3840 H   0  0  0  0  0  0  0  0  0  0  0  0
    4.4062   -8.5998   26.6775 H   0  0  0  0  0  0  0  0  0  0  0  0
    2.8232   -8.6678   27.4805 H   0  0  0  0  0  0  0  0  0  0  0  0
    4.1672   -7.8038   28.2301 H   0  0  0  0  0  0  0  0  0  0  0  0
    7.4106   -9.1070   28.7449 H   0  0  0  0  0  0  0  0  0  0  0  0
    5.2445  -11.4905   26.0777 H   0  0  0  0  0  0  0  0  0  0  0  0
    3.7835  -13.7748   25.7692 H   0  0  0  0  0  0  0  0  0  0  0  0
    1.4414  -14.6252   26.9816 H   0  0  0  0  0  0  0  0  0  0  0  0
   -1.5411  -17.4540   26.6326 H   0  0  0  0  0  0  0  0  0  0  0  0
   -1.0779  -15.0549   31.2697 H   0  0  0  0  0  0  0  0  0  0  0  0
   -2.5495  -14.3836   30.5543 H   0  0  0  0  0  0  0  0  0  0  0  0
   -3.2789  -16.0234   32.1699 H   0  0  0  0  0  0  0  0  0  0  0  0
   -2.0956  -17.2123   31.6279 H   0  0  0  0  0  0  0  0  0  0  0  0
   -4.4975  -16.2360   30.0019 H   0  0  0  0  0  0  0  0  0  0  0  0
   -4.3756  -17.7785   30.8428 H   0  0  0  0  0  0  0  0  0  0  0  0
   -2.6873  -18.6023   29.3206 H   0  0  0  0  0  0  0  0  0  0  0  0
   -3.8697  -17.7934   28.2770 H   0  0  0  0  0  0  0  0  0  0  0  0
  1  2  1  0
  2  3  1  0
  2  4  1  0
  4  5  2  0
  4  6  1  0
  2  7  1  0
  7  8  1  0
  8  9  2  0
  9 10  1  0
 10 11  1  0
 11 12  1  0
 12 13  2  0
 12 14  1  0
 14 15  2  0
 15 16  1  0
 16 17  1  0
 17 18  2  0
 18 19  1  0
 19 20  1  0
 20 21  1  0
 21 22  1  0
 10 23  2  0
 23  7  1  0
 18 14  1  0
 22 17  1  0
  1 24  1  0
  1 25  1  0
  1 26  1  0
  3 27  1  0
  3 28  1  0
  3 29  1  0
  6 30  1  0
  8 31  1  0
  9 32  1  0
 11 33  1  0
 16 34  1  0
 19 35  1  0
 19 36  1  0
 20 37  1  0
 20 38  1  0
 21 39  1  0
 21 40  1  0
 22 41  1  0
 22 42  1  0
M  END
>  <Energy>  (803) 
16.448066213224443

>  <compound_id>  (803) 
46480

>  <target_id>  (803) 
1

>  <reference_id>  (803) 
96

>  <inspiration_ids>  (803) 
[96, 81]

>  <energy_score>  (803) 
-68.63766845296936

>  <distance_score>  (803) 
14.0957756215023

>  <path>  (803) 
/opt/xchem-fragalysis-2/maxwin/BulkDock/SCRATCH/511023/C46480-P96/C46480-P96.minimised.mol

>  <scratch_subdir>  (803) 
/opt/xchem-fragalysis-2/maxwin/BulkDock/SCRATCH/511023/C46480-P96

>  <fragmenstein_runtime>  (803) 
26.839450120925903

>  <fragmenstein_outcome>  (803) 
too moved

>  <fragmenstein_mode>  (803) 
expansion

>  <fragmenstein_error>  (803) 


$$$$
C46480-P81
     RDKit          3D

 42 44  0  0  0  0  0  0  0  0999 V2000
   -1.8716  -18.8550   15.3473 C   0  0  0  0  0  0  0  0  0  0  0  0
   -0.4342  -19.2420   15.7630 C   0  0  0  0  0  0  0  0  0  0  0  0
   -0.1759  -20.6682   15.2302 C   0  0  0  0  0  0  0  0  0  0  0  0
    0.6025  -18.3184   15.0996 C   0  0  0  0  0  0  0  0  0  0  0  0
    1.8122  -18.5075   15.0572 O   0  0  0  0  0  0  0  0  0  0  0  0
    0.0863  -17.2041   14.5357 O   0  0  0  0  0  0  0  0  0  0  0  0
   -0.2651  -19.2456   17.2367 N   0  0  0  0  0  0  0  0  0  0  0  0
    0.8997  -19.4680   17.9148 C   0  0  0  0  0  0  0  0  0  0  0  0
    0.5368  -19.7835   19.2059 C   0  0  0  0  0  0  0  0  0  0  0  0
   -0.8745  -19.7385   19.2502 C   0  0  0  0  0  0  0  0  0  0  0  0
   -1.6807  -20.1129   20.3095 N   0  0  0  0  0  0  0  0  0  0  0  0
   -1.3652  -20.3648   21.6994 C   0  0  0  0  0  0  0  0  0  0  0  0
   -0.3375  -20.2361   22.3040 O   0  0  0  0  0  0  0  0  0  0  0  0
   -2.5331  -20.9738   22.4586 C   0  0  0  0  0  0  0  0  0  0  0  0
   -3.6106  -21.5048   21.8303 N   0  0  0  0  0  0  0  0  0  0  0  0
   -4.2771  -22.1878   22.7945 N   0  0  0  0  0  0  0  0  0  0  0  0
   -3.7169  -22.0556   24.0259 C   0  0  0  0  0  0  0  0  0  0  0  0
   -2.6595  -21.1876   23.8804 C   0  0  0  0  0  0  0  0  0  0  0  0
   -1.8689  -20.7114   25.0575 C   0  0  0  0  0  0  0  0  0  0  0  0
   -2.1798  -21.5040   26.3518 C   0  0  0  0  0  0  0  0  0  0  0  0
   -3.6526  -21.9218   26.4818 C   0  0  0  0  0  0  0  0  0  0  0  0
   -4.0848  -22.7638   25.2755 C   0  0  0  0  0  0  0  0  0  0  0  0
   -1.3528  -19.3476   18.0583 N   0  0  0  0  0  0  0  0  0  0  0  0
   -1.9709  -18.8159   14.2558 H   0  0  0  0  0  0  0  0  0  0  0  0
   -2.1604  -17.8730   15.7364 H   0  0  0  0  0  0  0  0  0  0  0  0
   -2.6075  -19.5807   15.7132 H   0  0  0  0  0  0  0  0  0  0  0  0
   -0.8737  -21.3904   15.6699 H   0  0  0  0  0  0  0  0  0  0  0  0
    0.8389  -21.0134   15.4611 H   0  0  0  0  0  0  0  0  0  0  0  0
   -0.2876  -20.7080   14.1403 H   0  0  0  0  0  0  0  0  0  0  0  0
    0.8413  -16.5822   14.3556 H   0  0  0  0  0  0  0  0  0  0  0  0
    1.8637  -19.4726   17.4274 H   0  0  0  0  0  0  0  0  0  0  0  0
    1.2047  -20.0905   20.0004 H   0  0  0  0  0  0  0  0  0  0  0  0
   -2.6745  -20.2542   20.1649 H   0  0  0  0  0  0  0  0  0  0  0  0
   -5.0802  -22.7476   22.5203 H   0  0  0  0  0  0  0  0  0  0  0  0
   -0.7946  -20.7672   24.8531 H   0  0  0  0  0  0  0  0  0  0  0  0
   -2.1139  -19.6551   25.2244 H   0  0  0  0  0  0  0  0  0  0  0  0
   -1.8780  -20.9111   27.2228 H   0  0  0  0  0  0  0  0  0  0  0  0
   -1.5605  -22.4109   26.3615 H   0  0  0  0  0  0  0  0  0  0  0  0
   -3.7788  -22.5039   27.3977 H   0  0  0  0  0  0  0  0  0  0  0  0
   -4.2759  -21.0242   26.5607 H   0  0  0  0  0  0  0  0  0  0  0  0
   -5.1401  -23.0117   25.3340 H   0  0  0  0  0  0  0  0  0  0  0  0
   -3.5280  -23.7068   25.2928 H   0  0  0  0  0  0  0  0  0  0  0  0
  1  2  1  0
  2  3  1  0
  2  4  1  0
  4  5  2  0
  4  6  1  0
  2  7  1  0
  7  8  1  0
  8  9  2  0
  9 10  1  0
 10 11  1  0
 11 12  1  0
 12 13  2  0
 12 14  1  0
 14 15  2  0
 15 16  1  0
 16 17  1  0
 17 18  2  0
 18 19  1  0
 19 20  1  0
 20 21  1  0
 21 22  1  0
 10 23  2  0
 23  7  1  0
 18 14  1  0
 22 17  1  0
  1 24  1  0
  1 25  1  0
  1 26  1  0
  3 27  1  0
  3 28  1  0
  3 29  1  0
  6 30  1  0
  8 31  1  0
  9 32  1  0
 11 33  1  0
 16 34  1  0
 19 35  1  0
 19 36  1  0
 20 37  1  0
 20 38  1  0
 21 39  1  0
 21 40  1  0
 22 41  1  0
 22 42  1  0
M  END
>  <Energy>  (804) 
15.217290072280804

>  <compound_id>  (804) 
46480

>  <target_id>  (804) 
1

>  <reference_id>  (804) 
81

>  <inspiration_ids>  (804) 
[96, 81]

>  <energy_score>  (804) 
-69.86844459391597

>  <distance_score>  (804) 
14.947044373627593

>  <path>  (804) 
/opt/xchem-fragalysis-2/maxwin/BulkDock/SCRATCH/511023/C46480-P81/C46480-P81.minimised.mol

>  <scratch_subdir>  (804) 
/opt/xchem-fragalysis-2/maxwin/BulkDock/SCRATCH/511023/C46480-P81

>  <fragmenstein_runtime>  (804) 
34.635143518447876

>  <fragmenstein_outcome>  (804) 
too moved

>  <fragmenstein_mode>  (804) 
expansion

>  <fragmenstein_error>  (804) 


$$$$
C46481-P96
     RDKit          3D

 40 42  0  0  0  0  0  0  0  0999 V2000
   -0.1992  -15.1539   15.8106 C   0  0  0  0  0  0  0  0  0  0  0  0
   -0.5596  -16.5127   16.4294 C   0  0  0  0  0  0  0  0  0  0  0  0
    0.4670  -17.5572   15.9384 C   0  0  0  0  0  0  0  0  0  0  0  0
   -1.9521  -16.8499   15.8740 C   0  0  0  0  0  0  0  0  0  0  0  0
   -3.0354  -16.6460   16.4011 O   0  0  0  0  0  0  0  0  0  0  0  0
   -1.9356  -17.3780   14.6287 O   0  0  0  0  0  0  0  0  0  0  0  0
   -0.6346  -16.5260   17.9046 N   0  0  0  0  0  0  0  0  0  0  0  0
   -1.0119  -17.6336   18.6602 C   0  0  0  0  0  0  0  0  0  0  0  0
   -1.7195  -17.2649   19.8221 C   0  0  0  0  0  0  0  0  0  0  0  0
   -2.5152  -18.1928   20.7064 N   0  0  0  0  0  0  0  0  0  0  0  0
   -3.1728  -17.9436   22.1751 C   0  0  0  0  0  0  0  0  0  0  0  0
   -3.1000  -17.0036   22.8985 O   0  0  0  0  0  0  0  0  0  0  0  0
   -4.0793  -19.2105   22.8416 C   0  0  0  0  0  0  0  0  0  0  0  0
   -4.8437  -20.0581   22.0965 N   0  0  0  0  0  0  0  0  0  0  0  0
   -5.4720  -20.9122   22.9556 N   0  0  0  0  0  0  0  0  0  0  0  0
   -5.1343  -20.7436   24.2537 C   0  0  0  0  0  0  0  0  0  0  0  0
   -4.3813  -19.5797   24.2941 C   0  0  0  0  0  0  0  0  0  0  0  0
   -3.9970  -18.9501   25.6088 C   0  0  0  0  0  0  0  0  0  0  0  0
   -3.9959  -20.1195   27.0079 S   0  0  0  0  0  0  0  0  0  0  0  0
   -5.5876  -20.9434   26.7042 C   0  0  0  0  0  0  0  0  0  0  0  0
   -5.5125  -21.6676   25.3639 C   0  0  0  0  0  0  0  0  0  0  0  0
   -1.3939  -15.8508   19.7481 C   0  0  0  0  0  0  0  0  0  0  0  0
   -0.6148  -15.4764   18.7040 N   0  0  0  0  0  0  0  0  0  0  0  0
    0.7689  -14.7900   16.1626 H   0  0  0  0  0  0  0  0  0  0  0  0
   -0.1379  -15.2214   14.7171 H   0  0  0  0  0  0  0  0  0  0  0  0
   -0.9634  -14.3993   16.0238 H   0  0  0  0  0  0  0  0  0  0  0  0
    0.5739  -17.5365   14.8472 H   0  0  0  0  0  0  0  0  0  0  0  0
    1.4610  -17.3785   16.3546 H   0  0  0  0  0  0  0  0  0  0  0  0
    0.1716  -18.5780   16.2049 H   0  0  0  0  0  0  0  0  0  0  0  0
   -2.8847  -17.4846   14.4023 H   0  0  0  0  0  0  0  0  0  0  0  0
   -0.9383  -18.6185   18.2216 H   0  0  0  0  0  0  0  0  0  0  0  0
   -2.7103  -19.1400   20.4011 H   0  0  0  0  0  0  0  0  0  0  0  0
   -6.0618  -21.6337   22.5505 H   0  0  0  0  0  0  0  0  0  0  0  0
   -2.9944  -18.5188   25.5267 H   0  0  0  0  0  0  0  0  0  0  0  0
   -4.6927  -18.1351   25.8352 H   0  0  0  0  0  0  0  0  0  0  0  0
   -5.7807  -21.6076   27.5305 H   0  0  0  0  0  0  0  0  0  0  0  0
   -6.3651  -20.1869   26.7413 H   0  0  0  0  0  0  0  0  0  0  0  0
   -4.7188  -22.4191   25.3736 H   0  0  0  0  0  0  0  0  0  0  0  0
   -6.4392  -22.1778   25.1121 H   0  0  0  0  0  0  0  0  0  0  0  0
   -1.7546  -15.1124   20.4498 H   0  0  0  0  0  0  0  0  0  0  0  0
  1  2  1  0
  2  3  1  0
  2  4  1  0
  4  5  2  0
  4  6  1  0
  2  7  1  0
  7  8  1  0
  8  9  2  0
  9 10  1  0
 10 11  1  0
 11 12  2  0
 11 13  1  0
 13 14  2  0
 14 15  1  0
 15 16  1  0
 16 17  2  0
 17 18  1  0
 18 19  1  0
 19 20  1  0
 20 21  1  0
  9 22  1  0
 22 23  2  0
 23  7  1  0
 17 13  1  0
 21 16  1  0
  1 24  1  0
  1 25  1  0
  1 26  1  0
  3 27  1  0
  3 28  1  0
  3 29  1  0
  6 30  1  0
  8 31  1  0
 10 32  1  0
 15 33  1  0
 18 34  1  0
 18 35  1  0
 20 36  1  0
 20 37  1  0
 21 38  1  0
 21 39  1  0
 22 40  1  0
M  END
>  <Energy>  (805) 
125.00150346861444

>  <compound_id>  (805) 
46481

>  <target_id>  (805) 
1

>  <reference_id>  (805) 
96

>  <inspiration_ids>  (805) 
[96, 81]

>  <energy_score>  (805) 
-11.389462136708175

>  <distance_score>  (805) 
13.997972308926142

>  <path>  (805) 
/opt/xchem-fragalysis-2/maxwin/BulkDock/SCRATCH/511023/C46481-P96/C46481-P96.minimised.mol

>  <scratch_subdir>  (805) 
/opt/xchem-fragalysis-2/maxwin/BulkDock/SCRATCH/511023/C46481-P96

>  <fragmenstein_runtime>  (805) 
12.883939743041992

>  <fragmenstein_outcome>  (805) 
too moved

>  <fragmenstein_mode>  (805) 
expansion

>  <fragmenstein_error>  (805) 


$$$$
C46481-P81
     RDKit          3D

 40 42  0  0  0  0  0  0  0  0999 V2000
    6.3176  -15.7490   25.3778 C   0  0  0  0  0  0  0  0  0  0  0  0
    5.4206  -15.0860   26.4365 C   0  0  0  0  0  0  0  0  0  0  0  0
    5.6926  -15.7853   27.7891 C   0  0  0  0  0  0  0  0  0  0  0  0
    5.7578  -13.6182   26.6882 C   0  0  0  0  0  0  0  0  0  0  0  0
    5.2042  -12.8787   27.4912 O   0  0  0  0  0  0  0  0  0  0  0  0
    6.8302  -13.1565   26.0093 O   0  0  0  0  0  0  0  0  0  0  0  0
    4.0154  -15.2054   26.0145 N   0  0  0  0  0  0  0  0  0  0  0  0
    3.1416  -16.2130   26.3546 C   0  0  0  0  0  0  0  0  0  0  0  0
    1.9212  -15.9378   25.7852 C   0  0  0  0  0  0  0  0  0  0  0  0
    0.7401  -16.6638   25.9170 N   0  0  0  0  0  0  0  0  0  0  0  0
    0.4431  -17.8735   26.6694 C   0  0  0  0  0  0  0  0  0  0  0  0
    1.1206  -18.5082   27.4300 O   0  0  0  0  0  0  0  0  0  0  0  0
   -0.9711  -18.3636   26.4082 C   0  0  0  0  0  0  0  0  0  0  0  0
   -1.8266  -17.6754   25.6160 N   0  0  0  0  0  0  0  0  0  0  0  0
   -2.9344  -18.4425   25.5531 N   0  0  0  0  0  0  0  0  0  0  0  0
   -2.8080  -19.6318   26.1974 C   0  0  0  0  0  0  0  0  0  0  0  0
   -1.6091  -19.5791   26.8786 C   0  0  0  0  0  0  0  0  0  0  0  0
   -1.0926  -20.6342   27.8011 C   0  0  0  0  0  0  0  0  0  0  0  0
   -2.3528  -21.9106   28.2352 S   0  0  0  0  0  0  0  0  0  0  0  0
   -3.2271  -22.0539   26.6394 C   0  0  0  0  0  0  0  0  0  0  0  0
   -3.8025  -20.7297   26.1348 C   0  0  0  0  0  0  0  0  0  0  0  0
    2.1958  -14.7585   25.0396 C   0  0  0  0  0  0  0  0  0  0  0  0
    3.4694  -14.3495   25.1227 N   0  0  0  0  0  0  0  0  0  0  0  0
    6.0712  -16.8111   25.2597 H   0  0  0  0  0  0  0  0  0  0  0  0
    6.2033  -15.2848   24.3948 H   0  0  0  0  0  0  0  0  0  0  0  0
    7.3772  -15.6834   25.6505 H   0  0  0  0  0  0  0  0  0  0  0  0
    4.9992  -15.4413   28.5661 H   0  0  0  0  0  0  0  0  0  0  0  0
    5.5967  -16.8743   27.7141 H   0  0  0  0  0  0  0  0  0  0  0  0
    6.7088  -15.5735   28.1438 H   0  0  0  0  0  0  0  0  0  0  0  0
    6.8491  -12.1989   26.2249 H   0  0  0  0  0  0  0  0  0  0  0  0
    3.4342  -17.0249   27.0051 H   0  0  0  0  0  0  0  0  0  0  0  0
   -0.1036  -16.3571   25.4336 H   0  0  0  0  0  0  0  0  0  0  0  0
   -3.7195  -18.1079   25.0033 H   0  0  0  0  0  0  0  0  0  0  0  0
   -0.2440  -21.1477   27.3374 H   0  0  0  0  0  0  0  0  0  0  0  0
   -0.7466  -20.1825   28.7360 H   0  0  0  0  0  0  0  0  0  0  0  0
   -2.5159  -22.4600   25.9107 H   0  0  0  0  0  0  0  0  0  0  0  0
   -4.0307  -22.7897   26.7443 H   0  0  0  0  0  0  0  0  0  0  0  0
   -4.6870  -20.4487   26.7014 H   0  0  0  0  0  0  0  0  0  0  0  0
   -4.1207  -20.8691   25.0953 H   0  0  0  0  0  0  0  0  0  0  0  0
    1.5086  -14.2045   24.4267 H   0  0  0  0  0  0  0  0  0  0  0  0
  1  2  1  0
  2  3  1  0
  2  4  1  0
  4  5  2  0
  4  6  1  0
  2  7  1  0
  7  8  1  0
  8  9  2  0
  9 10  1  0
 10 11  1  0
 11 12  2  0
 11 13  1  0
 13 14  2  0
 14 15  1  0
 15 16  1  0
 16 17  2  0
 17 18  1  0
 18 19  1  0
 19 20  1  0
 20 21  1  0
  9 22  1  0
 22 23  2  0
 23  7  1  0
 17 13  1  0
 21 16  1  0
  1 24  1  0
  1 25  1  0
  1 26  1  0
  3 27  1  0
  3 28  1  0
  3 29  1  0
  6 30  1  0
  8 31  1  0
 10 32  1  0
 15 33  1  0
 18 34  1  0
 18 35  1  0
 20 36  1  0
 20 37  1  0
 21 38  1  0
 21 39  1  0
 22 40  1  0
M  END
>  <Energy>  (806) 
57.408531790277621

>  <compound_id>  (806) 
46481

>  <target_id>  (806) 
1

>  <reference_id>  (806) 
81

>  <inspiration_ids>  (806) 
[96, 81]

>  <energy_score>  (806) 
-78.75611014017016

>  <distance_score>  (806) 
14.094164827582375

>  <path>  (806) 
/opt/xchem-fragalysis-2/maxwin/BulkDock/SCRATCH/511023/C46481-P81/C46481-P81.minimised.mol

>  <scratch_subdir>  (806) 
/opt/xchem-fragalysis-2/maxwin/BulkDock/SCRATCH/511023/C46481-P81

>  <fragmenstein_runtime>  (806) 
23.82475256919861

>  <fragmenstein_outcome>  (806) 
too moved

>  <fragmenstein_mode>  (806) 
expansion

>  <fragmenstein_error>  (806) 


$$$$
C46482-P96
     RDKit          3D

 42 44  0  0  0  0  0  0  0  0999 V2000
    5.5708  -10.9809   25.8248 C   0  0  0  0  0  0  0  0  0  0  0  0
    6.0506  -12.2982   26.4432 C   0  0  0  0  0  0  0  0  0  0  0  0
    7.4255  -12.6681   25.8480 C   0  0  0  0  0  0  0  0  0  0  0  0
    6.2813  -12.1404   27.9476 C   0  0  0  0  0  0  0  0  0  0  0  0
    6.1304  -12.9804   28.8212 O   0  0  0  0  0  0  0  0  0  0  0  0
    6.7713  -10.9296   28.3030 O   0  0  0  0  0  0  0  0  0  0  0  0
    5.0394  -13.3390   26.1877 N   0  0  0  0  0  0  0  0  0  0  0  0
    3.8584  -13.5572   26.8693 C   0  0  0  0  0  0  0  0  0  0  0  0
    3.3856  -14.8053   26.4966 C   0  0  0  0  0  0  0  0  0  0  0  0
    2.2568  -15.4467   27.0167 N   0  0  0  0  0  0  0  0  0  0  0  0
    1.7663  -16.8080   26.8420 C   0  0  0  0  0  0  0  0  0  0  0  0
    2.2497  -17.7459   26.2709 O   0  0  0  0  0  0  0  0  0  0  0  0
    0.4127  -17.0193   27.5250 C   0  0  0  0  0  0  0  0  0  0  0  0
   -0.4023  -15.9808   27.8352 N   0  0  0  0  0  0  0  0  0  0  0  0
   -1.5187  -16.5432   28.3566 N   0  0  0  0  0  0  0  0  0  0  0  0
   -1.4487  -17.8941   28.4574 C   0  0  0  0  0  0  0  0  0  0  0  0
   -0.2283  -18.2538   27.9263 C   0  0  0  0  0  0  0  0  0  0  0  0
    0.2031  -19.6798   27.8952 C   0  0  0  0  0  0  0  0  0  0  0  0
   -0.5803  -20.5140   28.9355 C   0  0  0  0  0  0  0  0  0  0  0  0
   -2.0931  -20.2559   28.8761 C   0  0  0  0  0  0  0  0  0  0  0  0
   -2.4626  -18.7760   29.0938 C   0  0  0  0  0  0  0  0  0  0  0  0
    4.2837  -15.1723   25.4551 C   0  0  0  0  0  0  0  0  0  0  0  0
    5.2237  -14.2471   25.2042 N   0  0  0  0  0  0  0  0  0  0  0  0
    4.6684  -10.6176   26.3289 H   0  0  0  0  0  0  0  0  0  0  0  0
    5.3447  -11.1068   24.7617 H   0  0  0  0  0  0  0  0  0  0  0  0
    6.3265  -10.1911   25.9052 H   0  0  0  0  0  0  0  0  0  0  0  0
    7.7873  -13.6237   26.2468 H   0  0  0  0  0  0  0  0  0  0  0  0
    8.1809  -11.9111   26.0906 H   0  0  0  0  0  0  0  0  0  0  0  0
    7.3871  -12.7529   24.7566 H   0  0  0  0  0  0  0  0  0  0  0  0
    6.9147  -11.0107   29.2710 H   0  0  0  0  0  0  0  0  0  0  0  0
    3.5098  -12.8637   27.6206 H   0  0  0  0  0  0  0  0  0  0  0  0
    1.6223  -14.9415   27.6298 H   0  0  0  0  0  0  0  0  0  0  0  0
   -2.2715  -15.9315   28.6567 H   0  0  0  0  0  0  0  0  0  0  0  0
    0.0234  -20.0839   26.8919 H   0  0  0  0  0  0  0  0  0  0  0  0
    1.2763  -19.7608   28.0987 H   0  0  0  0  0  0  0  0  0  0  0  0
   -0.2176  -20.2703   29.9427 H   0  0  0  0  0  0  0  0  0  0  0  0
   -0.3778  -21.5787   28.7722 H   0  0  0  0  0  0  0  0  0  0  0  0
   -2.4687  -20.5825   27.8979 H   0  0  0  0  0  0  0  0  0  0  0  0
   -2.5769  -20.8758   29.6355 H   0  0  0  0  0  0  0  0  0  0  0  0
   -2.4956  -18.5642   30.1691 H   0  0  0  0  0  0  0  0  0  0  0  0
   -3.4529  -18.5694   28.6791 H   0  0  0  0  0  0  0  0  0  0  0  0
    4.2577  -16.0702   24.8507 H   0  0  0  0  0  0  0  0  0  0  0  0
  1  2  1  0
  2  3  1  0
  2  4  1  0
  4  5  2  0
  4  6  1  0
  2  7  1  0
  7  8  1  0
  8  9  2  0
  9 10  1  0
 10 11  1  0
 11 12  2  0
 11 13  1  0
 13 14  2  0
 14 15  1  0
 15 16  1  0
 16 17  2  0
 17 18  1  0
 18 19  1  0
 19 20  1  0
 20 21  1  0
  9 22  1  0
 22 23  2  0
 23  7  1  0
 17 13  1  0
 21 16  1  0
  1 24  1  0
  1 25  1  0
  1 26  1  0
  3 27  1  0
  3 28  1  0
  3 29  1  0
  6 30  1  0
  8 31  1  0
 10 32  1  0
 15 33  1  0
 18 34  1  0
 18 35  1  0
 19 36  1  0
 19 37  1  0
 20 38  1  0
 20 39  1  0
 21 40  1  0
 21 41  1  0
 22 42  1  0
M  END
>  <Energy>  (807) 
50.434933824088759

>  <compound_id>  (807) 
46482

>  <target_id>  (807) 
1

>  <reference_id>  (807) 
96

>  <inspiration_ids>  (807) 
[96, 81]

>  <energy_score>  (807) 
-34.241319718516024

>  <distance_score>  (807) 
14.185470407995973

>  <path>  (807) 
/opt/xchem-fragalysis-2/maxwin/BulkDock/SCRATCH/511023/C46482-P96/C46482-P96.minimised.mol

>  <scratch_subdir>  (807) 
/opt/xchem-fragalysis-2/maxwin/BulkDock/SCRATCH/511023/C46482-P96

>  <fragmenstein_runtime>  (807) 
18.203389406204224

>  <fragmenstein_outcome>  (807) 
too moved

>  <fragmenstein_mode>  (807) 
expansion

>  <fragmenstein_error>  (807) 


$$$$
C46482-P81
     RDKit          3D

 42 44  0  0  0  0  0  0  0  0999 V2000
   10.3163  -11.0123   19.8880 C   0  0  0  0  0  0  0  0  0  0  0  0
    9.3148  -11.7962   20.7455 C   0  0  0  0  0  0  0  0  0  0  0  0
    9.6604  -13.2942   20.6486 C   0  0  0  0  0  0  0  0  0  0  0  0
    9.4907  -11.2835   22.1755 C   0  0  0  0  0  0  0  0  0  0  0  0
    9.7134  -10.1293   22.5135 O   0  0  0  0  0  0  0  0  0  0  0  0
    9.3492  -12.2221   23.1366 O   0  0  0  0  0  0  0  0  0  0  0  0
    7.9350  -11.5882   20.2845 N   0  0  0  0  0  0  0  0  0  0  0  0
    6.7864  -11.6068   21.0294 C   0  0  0  0  0  0  0  0  0  0  0  0
    5.5735  -11.9009   20.2844 C   0  0  0  0  0  0  0  0  0  0  0  0
    4.5177  -12.6133   21.0394 N   0  0  0  0  0  0  0  0  0  0  0  0
    3.6079  -12.1422   22.5333 C   0  0  0  0  0  0  0  0  0  0  0  0
    3.7220  -11.0735   23.0035 O   0  0  0  0  0  0  0  0  0  0  0  0
    2.5995  -13.2106   23.6499 C   0  0  0  0  0  0  0  0  0  0  0  0
    2.5537  -14.5749   23.4943 N   0  0  0  0  0  0  0  0  0  0  0  0
    1.4068  -14.9541   24.1380 N   0  0  0  0  0  0  0  0  0  0  0  0
    1.3969  -14.5103   25.3847 C   0  0  0  0  0  0  0  0  0  0  0  0
    2.1339  -13.3226   25.2528 C   0  0  0  0  0  0  0  0  0  0  0  0
    2.1455  -12.5063   26.5253 C   0  0  0  0  0  0  0  0  0  0  0  0
    1.4045  -13.1432   27.7575 C   0  0  0  0  0  0  0  0  0  0  0  0
    0.1584  -13.9677   27.4233 C   0  0  0  0  0  0  0  0  0  0  0  0
    0.5474  -15.0816   26.4629 C   0  0  0  0  0  0  0  0  0  0  0  0
    6.2799  -11.7902   19.1224 C   0  0  0  0  0  0  0  0  0  0  0  0
    7.6074  -11.6613   19.0136 N   0  0  0  0  0  0  0  0  0  0  0  0
   10.1010   -9.9402   19.9414 H   0  0  0  0  0  0  0  0  0  0  0  0
   10.2850  -11.3181   18.8365 H   0  0  0  0  0  0  0  0  0  0  0  0
   11.3434  -11.1543   20.2448 H   0  0  0  0  0  0  0  0  0  0  0  0
    8.9445  -13.9106   21.2056 H   0  0  0  0  0  0  0  0  0  0  0  0
    9.6433  -13.6421   19.6090 H   0  0  0  0  0  0  0  0  0  0  0  0
   10.6579  -13.4991   21.0541 H   0  0  0  0  0  0  0  0  0  0  0  0
    9.4057  -11.7129   23.9745 H   0  0  0  0  0  0  0  0  0  0  0  0
    6.9648  -11.5156   22.0903 H   0  0  0  0  0  0  0  0  0  0  0  0
    4.2162  -13.5362   20.7481 H   0  0  0  0  0  0  0  0  0  0  0  0
    0.7720  -15.6136   23.6938 H   0  0  0  0  0  0  0  0  0  0  0  0
    1.7019  -11.5268   26.3475 H   0  0  0  0  0  0  0  0  0  0  0  0
    3.1791  -12.3960   26.8560 H   0  0  0  0  0  0  0  0  0  0  0  0
    2.1171  -13.7939   28.2832 H   0  0  0  0  0  0  0  0  0  0  0  0
    1.1464  -12.3442   28.4627 H   0  0  0  0  0  0  0  0  0  0  0  0
   -0.2784  -14.3893   28.3350 H   0  0  0  0  0  0  0  0  0  0  0  0
   -0.5983  -13.3162   26.9703 H   0  0  0  0  0  0  0  0  0  0  0  0
    1.1153  -15.8555   26.9926 H   0  0  0  0  0  0  0  0  0  0  0  0
   -0.3534  -15.5528   26.0544 H   0  0  0  0  0  0  0  0  0  0  0  0
    5.7045  -11.5491   18.3144 H   0  0  0  0  0  0  0  0  0  0  0  0
  1  2  1  0
  2  3  1  0
  2  4  1  0
  4  5  2  0
  4  6  1  0
  2  7  1  0
  7  8  1  0
  8  9  2  0
  9 10  1  0
 10 11  1  0
 11 12  2  0
 11 13  1  0
 13 14  2  0
 14 15  1  0
 15 16  1  0
 16 17  2  0
 17 18  1  0
 18 19  1  0
 19 20  1  0
 20 21  1  0
  9 22  1  0
 22 23  2  0
 23  7  1  0
 17 13  1  0
 21 16  1  0
  1 24  1  0
  1 25  1  0
  1 26  1  0
  3 27  1  0
  3 28  1  0
  3 29  1  0
  6 30  1  0
  8 31  1  0
 10 32  1  0
 15 33  1  0
 18 34  1  0
 18 35  1  0
 19 36  1  0
 19 37  1  0
 20 38  1  0
 20 39  1  0
 21 40  1  0
 21 41  1  0
 22 42  1  0
M  END
>  <Energy>  (808) 
266.06694645895084

>  <compound_id>  (808) 
46482

>  <target_id>  (808) 
1

>  <reference_id>  (808) 
81

>  <inspiration_ids>  (808) 
[96, 81]

>  <energy_score>  (808) 
181.39069291634394

>  <distance_score>  (808) 
15.26710686303321

>  <path>  (808) 
/opt/xchem-fragalysis-2/maxwin/BulkDock/SCRATCH/511023/C46482-P81/C46482-P81.minimised.mol

>  <scratch_subdir>  (808) 
/opt/xchem-fragalysis-2/maxwin/BulkDock/SCRATCH/511023/C46482-P81

>  <fragmenstein_runtime>  (808) 
32.48845815658569

>  <fragmenstein_outcome>  (808) 
too moved

>  <fragmenstein_mode>  (808) 
expansion

>  <fragmenstein_error>  (808) 


$$$$
C46483-P96
     RDKit          3D

 39 41  0  0  0  0  0  0  0  0999 V2000
   -5.2559   -5.5018   25.0927 C   0  0  0  0  0  0  0  0  0  0  0  0
   -4.0020   -6.1604   24.4875 C   0  0  0  0  0  0  0  0  0  0  0  0
   -3.7013   -5.4972   23.1287 C   0  0  0  0  0  0  0  0  0  0  0  0
   -2.7663   -5.9249   25.3570 C   0  0  0  0  0  0  0  0  0  0  0  0
   -1.7697   -6.6292   25.4315 O   0  0  0  0  0  0  0  0  0  0  0  0
   -2.7938   -4.7647   26.0493 O   0  0  0  0  0  0  0  0  0  0  0  0
   -4.2566   -7.6078   24.3662 N   0  0  0  0  0  0  0  0  0  0  0  0
   -4.4115   -8.5082   25.4036 C   0  0  0  0  0  0  0  0  0  0  0  0
   -4.8785   -9.6920   24.8691 C   0  0  0  0  0  0  0  0  0  0  0  0
   -5.2341  -10.8367   25.5685 N   0  0  0  0  0  0  0  0  0  0  0  0
   -5.5740  -12.1691   25.1027 C   0  0  0  0  0  0  0  0  0  0  0  0
   -5.5571  -12.6401   23.9998 O   0  0  0  0  0  0  0  0  0  0  0  0
   -6.0006  -13.0563   26.2509 C   0  0  0  0  0  0  0  0  0  0  0  0
   -6.4308  -12.5379   27.4361 N   0  0  0  0  0  0  0  0  0  0  0  0
   -6.7396  -13.6131   28.2150 N   0  0  0  0  0  0  0  0  0  0  0  0
   -6.5123  -14.7709   27.5765 C   0  0  0  0  0  0  0  0  0  0  0  0
   -6.0397  -14.4740   26.3334 C   0  0  0  0  0  0  0  0  0  0  0  0
   -5.6922  -15.7143   25.6119 C   0  0  0  0  0  0  0  0  0  0  0  0
   -5.6612  -16.7670   26.7843 C   0  0  0  0  0  0  0  0  0  0  0  0
   -6.5534  -16.1941   27.9285 C   0  0  0  0  0  0  0  0  0  0  0  0
   -4.9225   -9.4174   23.4830 C   0  0  0  0  0  0  0  0  0  0  0  0
   -4.5286   -8.1748   23.1631 N   0  0  0  0  0  0  0  0  0  0  0  0
   -6.1515   -5.7423   24.5077 H   0  0  0  0  0  0  0  0  0  0  0  0
   -5.4307   -5.8401   26.1208 H   0  0  0  0  0  0  0  0  0  0  0  0
   -5.1656   -4.4098   25.1226 H   0  0  0  0  0  0  0  0  0  0  0  0
   -2.8212   -5.9414   22.6505 H   0  0  0  0  0  0  0  0  0  0  0  0
   -3.4920   -4.4276   23.2496 H   0  0  0  0  0  0  0  0  0  0  0  0
   -4.5448   -5.5912   22.4353 H   0  0  0  0  0  0  0  0  0  0  0  0
   -1.9323   -4.7321   26.5190 H   0  0  0  0  0  0  0  0  0  0  0  0
   -4.2226   -8.2174   26.4275 H   0  0  0  0  0  0  0  0  0  0  0  0
   -5.2870  -10.8168   26.5848 H   0  0  0  0  0  0  0  0  0  0  0  0
   -7.0545  -13.4548   29.1675 H   0  0  0  0  0  0  0  0  0  0  0  0
   -4.7233  -15.6593   25.1085 H   0  0  0  0  0  0  0  0  0  0  0  0
   -6.4689  -15.9708   24.8851 H   0  0  0  0  0  0  0  0  0  0  0  0
   -4.6286  -16.8547   27.1489 H   0  0  0  0  0  0  0  0  0  0  0  0
   -5.9762  -17.7583   26.4620 H   0  0  0  0  0  0  0  0  0  0  0  0
   -6.1319  -16.4027   28.9128 H   0  0  0  0  0  0  0  0  0  0  0  0
   -7.5705  -16.5785   27.8397 H   0  0  0  0  0  0  0  0  0  0  0  0
   -5.2643  -10.0823   22.6994 H   0  0  0  0  0  0  0  0  0  0  0  0
  1  2  1  0
  2  3  1  0
  2  4  1  0
  4  5  2  0
  4  6  1  0
  2  7  1  0
  7  8  1  0
  8  9  2  0
  9 10  1  0
 10 11  1  0
 11 12  2  0
 11 13  1  0
 13 14  2  0
 14 15  1  0
 15 16  1  0
 16 17  2  0
 17 18  1  0
 18 19  1  0
 19 20  1  0
  9 21  1  0
 21 22  2  0
 22  7  1  0
 17 13  1  0
 20 16  1  0
  1 23  1  0
  1 24  1  0
  1 25  1  0
  3 26  1  0
  3 27  1  0
  3 28  1  0
  6 29  1  0
  8 30  1  0
 10 31  1  0
 15 32  1  0
 18 33  1  0
 18 34  1  0
 19 35  1  0
 19 36  1  0
 20 37  1  0
 20 38  1  0
 21 39  1  0
M  END
>  <Energy>  (809) 
66.221939281336347

>  <compound_id>  (809) 
46483

>  <target_id>  (809) 
1

>  <reference_id>  (809) 
96

>  <inspiration_ids>  (809) 
[96, 81]

>  <energy_score>  (809) 
-55.044444390709714

>  <distance_score>  (809) 
14.967861850508944

>  <path>  (809) 
/opt/xchem-fragalysis-2/maxwin/BulkDock/SCRATCH/511023/C46483-P96/C46483-P96.minimised.mol

>  <scratch_subdir>  (809) 
/opt/xchem-fragalysis-2/maxwin/BulkDock/SCRATCH/511023/C46483-P96

>  <fragmenstein_runtime>  (809) 
26.715142011642456

>  <fragmenstein_outcome>  (809) 
too moved

>  <fragmenstein_mode>  (809) 
expansion

>  <fragmenstein_error>  (809) 


$$$$
C46483-P81
     RDKit          3D

 39 41  0  0  0  0  0  0  0  0999 V2000
    5.7803  -16.3493   27.1838 C   0  0  0  0  0  0  0  0  0  0  0  0
    5.3350  -15.2969   26.1424 C   0  0  0  0  0  0  0  0  0  0  0  0
    5.5926  -13.9086   26.7604 C   0  0  0  0  0  0  0  0  0  0  0  0
    6.1883  -15.5609   24.9059 C   0  0  0  0  0  0  0  0  0  0  0  0
    5.9300  -16.3107   23.9738 O   0  0  0  0  0  0  0  0  0  0  0  0
    7.3934  -14.9462   24.9314 O   0  0  0  0  0  0  0  0  0  0  0  0
    3.9142  -15.4196   25.7752 N   0  0  0  0  0  0  0  0  0  0  0  0
    3.0456  -16.4130   26.1599 C   0  0  0  0  0  0  0  0  0  0  0  0
    1.7847  -16.0920   25.7180 C   0  0  0  0  0  0  0  0  0  0  0  0
    0.6127  -16.8180   25.9277 N   0  0  0  0  0  0  0  0  0  0  0  0
    0.3842  -18.0828   26.6088 C   0  0  0  0  0  0  0  0  0  0  0  0
    1.1346  -18.7831   27.2310 O   0  0  0  0  0  0  0  0  0  0  0  0
   -1.0470  -18.5677   26.4602 C   0  0  0  0  0  0  0  0  0  0  0  0
   -2.0063  -17.8801   25.7774 N   0  0  0  0  0  0  0  0  0  0  0  0
   -3.1016  -18.7002   25.7674 N   0  0  0  0  0  0  0  0  0  0  0  0
   -2.8631  -19.8647   26.3987 C   0  0  0  0  0  0  0  0  0  0  0  0
   -1.6109  -19.7883   26.9292 C   0  0  0  0  0  0  0  0  0  0  0  0
   -1.2730  -21.0252   27.6664 C   0  0  0  0  0  0  0  0  0  0  0  0
   -2.6468  -21.7987   27.6762 C   0  0  0  0  0  0  0  0  0  0  0  0
   -3.5480  -21.1538   26.5705 C   0  0  0  0  0  0  0  0  0  0  0  0
    2.0154  -14.8749   25.0224 C   0  0  0  0  0  0  0  0  0  0  0  0
    3.2919  -14.4625   25.0488 N   0  0  0  0  0  0  0  0  0  0  0  0
    5.1906  -16.2790   28.1050 H   0  0  0  0  0  0  0  0  0  0  0  0
    5.6864  -17.3704   26.7949 H   0  0  0  0  0  0  0  0  0  0  0  0
    6.8347  -16.2155   27.4549 H   0  0  0  0  0  0  0  0  0  0  0  0
    4.9184  -13.7224   27.6049 H   0  0  0  0  0  0  0  0  0  0  0  0
    6.6199  -13.8146   27.1314 H   0  0  0  0  0  0  0  0  0  0  0  0
    5.4441  -13.1019   26.0383 H   0  0  0  0  0  0  0  0  0  0  0  0
    7.8036  -15.1830   24.0726 H   0  0  0  0  0  0  0  0  0  0  0  0
    3.3723  -17.2660   26.7375 H   0  0  0  0  0  0  0  0  0  0  0  0
   -0.2361  -16.5494   25.4320 H   0  0  0  0  0  0  0  0  0  0  0  0
   -3.9342  -18.3940   25.2732 H   0  0  0  0  0  0  0  0  0  0  0  0
   -0.5166  -21.6041   27.1269 H   0  0  0  0  0  0  0  0  0  0  0  0
   -0.9261  -20.8292   28.6846 H   0  0  0  0  0  0  0  0  0  0  0  0
   -2.5116  -22.8739   27.5208 H   0  0  0  0  0  0  0  0  0  0  0  0
   -3.1143  -21.6691   28.6570 H   0  0  0  0  0  0  0  0  0  0  0  0
   -3.4914  -21.7440   25.6497 H   0  0  0  0  0  0  0  0  0  0  0  0
   -4.5871  -21.0776   26.8752 H   0  0  0  0  0  0  0  0  0  0  0  0
    1.2866  -14.2860   24.4964 H   0  0  0  0  0  0  0  0  0  0  0  0
  1  2  1  0
  2  3  1  0
  2  4  1  0
  4  5  2  0
  4  6  1  0
  2  7  1  0
  7  8  1  0
  8  9  2  0
  9 10  1  0
 10 11  1  0
 11 12  2  0
 11 13  1  0
 13 14  2  0
 14 15  1  0
 15 16  1  0
 16 17  2  0
 17 18  1  0
 18 19  1  0
 19 20  1  0
  9 21  1  0
 21 22  2  0
 22  7  1  0
 17 13  1  0
 20 16  1  0
  1 23  1  0
  1 24  1  0
  1 25  1  0
  3 26  1  0
  3 27  1  0
  3 28  1  0
  6 29  1  0
  8 30  1  0
 10 31  1  0
 15 32  1  0
 18 33  1  0
 18 34  1  0
 19 35  1  0
 19 36  1  0
 20 37  1  0
 20 38  1  0
 21 39  1  0
M  END
>  <Energy>  (810) 
68.02169163036892

>  <compound_id>  (810) 
46483

>  <target_id>  (810) 
1

>  <reference_id>  (810) 
81

>  <inspiration_ids>  (810) 
[96, 81]

>  <energy_score>  (810) 
-53.24469204168071

>  <distance_score>  (810) 
14.025514122448328

>  <path>  (810) 
/opt/xchem-fragalysis-2/maxwin/BulkDock/SCRATCH/511023/C46483-P81/C46483-P81.minimised.mol

>  <scratch_subdir>  (810) 
/opt/xchem-fragalysis-2/maxwin/BulkDock/SCRATCH/511023/C46483-P81

>  <fragmenstein_runtime>  (810) 
39.798799991607666

>  <fragmenstein_outcome>  (810) 
too moved

>  <fragmenstein_mode>  (810) 
expansion

>  <fragmenstein_error>  (810) 


$$$$
C28362-P96
     RDKit          3D

 43 44  0  0  0  0  0  0  0  0999 V2000
    5.5103   -7.5198   26.1964 C   0  0  0  0  0  0  0  0  0  0  0  0
    6.2519   -7.5446   24.8673 C   0  0  0  0  0  0  0  0  0  0  0  0
    6.6031   -8.9923   24.4595 C   0  0  0  0  0  0  0  0  0  0  0  0
    7.1484   -9.0732   23.0176 C   0  0  0  0  0  0  0  0  0  0  0  0
    8.4651   -8.5000   22.7753 N   0  0  0  0  0  0  0  0  0  0  0  0
    8.8596   -7.2670   22.1200 C   0  0  0  0  0  0  0  0  0  0  0  0
    8.1972   -6.3687   21.6815 O   0  0  0  0  0  0  0  0  0  0  0  0
   10.4111   -7.1773   21.9543 C   0  0  0  0  0  0  0  0  0  0  0  0
   10.8269   -7.0951   20.5897 O   0  0  0  0  0  0  0  0  0  0  0  0
   11.2518   -5.8837   20.1457 C   0  0  0  0  0  0  0  0  0  0  0  0
   12.0058   -5.6518   18.9755 C   0  0  0  0  0  0  0  0  0  0  0  0
   12.2108   -4.3514   18.7398 N   0  0  0  0  0  0  0  0  0  0  0  0
   11.6149   -3.7487   19.7905 N   0  0  0  0  0  0  0  0  0  0  0  0
   11.5802   -2.3066   19.8676 C   0  0  0  0  0  0  0  0  0  0  0  0
   11.0339   -4.6312   20.6645 C   0  0  0  0  0  0  0  0  0  0  0  0
    7.4028   -6.6705   24.9347 N   0  0  0  0  0  0  0  0  0  0  0  0
    8.5915   -6.7458   25.7207 C   0  0  0  0  0  0  0  0  0  0  0  0
    8.9085   -7.5083   26.5837 O   0  0  0  0  0  0  0  0  0  0  0  0
    9.5541   -5.6858   25.3712 C   0  0  0  0  0  0  0  0  0  0  0  0
    9.4560   -4.5316   24.5533 C   0  0  0  0  0  0  0  0  0  0  0  0
   10.5978   -3.8403   24.4855 N   0  0  0  0  0  0  0  0  0  0  0  0
   11.4217   -4.5063   25.3061 N   0  0  0  0  0  0  0  0  0  0  0  0
   10.8551   -5.6210   25.8431 C   0  0  0  0  0  0  0  0  0  0  0  0
    6.0964   -7.9859   26.9954 H   0  0  0  0  0  0  0  0  0  0  0  0
    5.2875   -6.4919   26.5032 H   0  0  0  0  0  0  0  0  0  0  0  0
    4.5623   -8.0524   26.1061 H   0  0  0  0  0  0  0  0  0  0  0  0
    5.5985   -7.1020   24.1081 H   0  0  0  0  0  0  0  0  0  0  0  0
    5.7080   -9.6176   24.5206 H   0  0  0  0  0  0  0  0  0  0  0  0
    7.3539   -9.4048   25.1426 H   0  0  0  0  0  0  0  0  0  0  0  0
    7.2327  -10.1253   22.7340 H   0  0  0  0  0  0  0  0  0  0  0  0
    6.4442   -8.5953   22.3292 H   0  0  0  0  0  0  0  0  0  0  0  0
    9.2963   -8.9886   23.0899 H   0  0  0  0  0  0  0  0  0  0  0  0
   10.8786   -8.0840   22.3522 H   0  0  0  0  0  0  0  0  0  0  0  0
   10.7892   -6.3589   22.5747 H   0  0  0  0  0  0  0  0  0  0  0  0
   12.4072   -6.3817   18.2858 H   0  0  0  0  0  0  0  0  0  0  0  0
   12.6070   -1.9447   19.9586 H   0  0  0  0  0  0  0  0  0  0  0  0
   11.1152   -1.9234   18.9558 H   0  0  0  0  0  0  0  0  0  0  0  0
   10.9959   -2.0034   20.7398 H   0  0  0  0  0  0  0  0  0  0  0  0
   10.4955   -4.2756   21.5322 H   0  0  0  0  0  0  0  0  0  0  0  0
    7.5132   -5.9442   24.2386 H   0  0  0  0  0  0  0  0  0  0  0  0
    8.6100   -4.1597   23.9872 H   0  0  0  0  0  0  0  0  0  0  0  0
   12.3597   -4.1439   25.4482 H   0  0  0  0  0  0  0  0  0  0  0  0
   11.4019   -6.2654   26.5179 H   0  0  0  0  0  0  0  0  0  0  0  0
  1  2  1  0
  2  3  1  0
  3  4  1  0
  4  5  1  0
  5  6  1  0
  6  7  2  0
  6  8  1  0
  8  9  1  0
  9 10  1  0
 10 11  1  0
 11 12  2  0
 12 13  1  0
 13 14  1  0
 13 15  1  0
  2 16  1  0
 16 17  1  0
 17 18  2  0
 17 19  1  0
 19 20  1  0
 20 21  2  0
 21 22  1  0
 22 23  1  0
 15 10  2  0
 23 19  2  0
  1 24  1  0
  1 25  1  0
  1 26  1  0
  2 27  1  0
  3 28  1  0
  3 29  1  0
  4 30  1  0
  4 31  1  0
  5 32  1  0
  8 33  1  0
  8 34  1  0
 11 35  1  0
 14 36  1  0
 14 37  1  0
 14 38  1  0
 15 39  1  0
 16 40  1  0
 20 41  1  0
 22 42  1  0
 23 43  1  0
M  END
>  <Energy>  (811) 
22.504081096398636

>  <compound_id>  (811) 
28362

>  <target_id>  (811) 
1

>  <reference_id>  (811) 
96

>  <inspiration_ids>  (811) 
[96, 81]

>  <energy_score>  (811) 
-30.307505644480443

>  <distance_score>  (811) 
19.80716188409678

>  <path>  (811) 
/opt/xchem-fragalysis-2/maxwin/BulkDock/SCRATCH/511023/C28362-P96/C28362-P96.minimised.mol

>  <scratch_subdir>  (811) 
/opt/xchem-fragalysis-2/maxwin/BulkDock/SCRATCH/511023/C28362-P96

>  <fragmenstein_runtime>  (811) 
179.03482031822205

>  <fragmenstein_outcome>  (811) 
too moved

>  <fragmenstein_mode>  (811) 
expansion

>  <fragmenstein_error>  (811) 


$$$$
C28362-P81
     RDKit          3D

 43 44  0  0  0  0  0  0  0  0999 V2000
   -6.9069  -16.8281   33.7861 C   0  0  0  0  0  0  0  0  0  0  0  0
   -6.1795  -17.8630   32.8176 C   0  0  0  0  0  0  0  0  0  0  0  0
   -5.3898  -16.5354   31.4356 C   0  0  0  0  0  0  0  0  0  0  0  0
   -4.2690  -15.6201   29.9845 C   0  0  0  0  0  0  0  0  0  0  0  0
   -3.9032  -15.2924   28.1305 N   0  0  0  0  0  0  0  0  0  0  0  0
   -2.3665  -14.9184   27.2619 C   0  0  0  0  0  0  0  0  0  0  0  0
   -1.3292  -14.9339   27.8540 O   0  0  0  0  0  0  0  0  0  0  0  0
   -2.0499  -14.2494   25.2960 C   0  0  0  0  0  0  0  0  0  0  0  0
   -0.7567  -13.8929   23.7963 O   0  0  0  0  0  0  0  0  0  0  0  0
   -0.4120  -12.4784   22.5604 C   0  0  0  0  0  0  0  0  0  0  0  0
   -1.5734  -11.8143   21.0866 C   0  0  0  0  0  0  0  0  0  0  0  0
   -1.7278  -10.5545   20.7486 N   0  0  0  0  0  0  0  0  0  0  0  0
   -0.6951  -10.0241   21.3414 N   0  0  0  0  0  0  0  0  0  0  0  0
   -0.5474   -8.5789   21.2898 C   0  0  0  0  0  0  0  0  0  0  0  0
   -0.0929  -10.8954   22.2918 C   0  0  0  0  0  0  0  0  0  0  0  0
   -7.2613  -19.4297   33.3202 N   0  0  0  0  0  0  0  0  0  0  0  0
   -7.1888  -21.2535   32.7559 C   0  0  0  0  0  0  0  0  0  0  0  0
   -6.2798  -21.5543   32.0566 O   0  0  0  0  0  0  0  0  0  0  0  0
   -8.4042  -22.7338   32.8888 C   0  0  0  0  0  0  0  0  0  0  0  0
  -10.0377  -22.8637   32.0094 C   0  0  0  0  0  0  0  0  0  0  0  0
  -10.6748  -24.0200   31.8858 N   0  0  0  0  0  0  0  0  0  0  0  0
   -9.6792  -24.8331   32.1530 N   0  0  0  0  0  0  0  0  0  0  0  0
   -8.4982  -24.1101   32.1260 C   0  0  0  0  0  0  0  0  0  0  0  0
   -6.2621  -15.9655   33.9792 H   0  0  0  0  0  0  0  0  0  0  0  0
   -7.1447  -17.2869   34.7526 H   0  0  0  0  0  0  0  0  0  0  0  0
   -7.8574  -16.4726   33.3829 H   0  0  0  0  0  0  0  0  0  0  0  0
   -6.8217  -18.0253   31.9663 H   0  0  0  0  0  0  0  0  0  0  0  0
   -5.7562  -15.5870   31.8500 H   0  0  0  0  0  0  0  0  0  0  0  0
   -5.8454  -17.0321   30.6021 H   0  0  0  0  0  0  0  0  0  0  0  0
   -4.6844  -14.6136   30.1473 H   0  0  0  0  0  0  0  0  0  0  0  0
   -3.2522  -15.5910   30.4053 H   0  0  0  0  0  0  0  0  0  0  0  0
   -4.6765  -15.1478   27.4917 H   0  0  0  0  0  0  0  0  0  0  0  0
   -2.6486  -13.3269   25.2647 H   0  0  0  0  0  0  0  0  0  0  0  0
   -2.6129  -15.0499   24.7898 H   0  0  0  0  0  0  0  0  0  0  0  0
   -2.1688  -12.5191   20.4943 H   0  0  0  0  0  0  0  0  0  0  0  0
    0.4496   -8.3065   21.6319 H   0  0  0  0  0  0  0  0  0  0  0  0
   -0.6969   -8.2372   20.2628 H   0  0  0  0  0  0  0  0  0  0  0  0
   -1.3044   -8.1392   21.9445 H   0  0  0  0  0  0  0  0  0  0  0  0
    0.0506  -10.1532   22.9709 H   0  0  0  0  0  0  0  0  0  0  0  0
   -8.0166  -19.3293   33.9621 H   0  0  0  0  0  0  0  0  0  0  0  0
  -10.5131  -21.9732   31.5780 H   0  0  0  0  0  0  0  0  0  0  0  0
   -9.8036  -25.8379   32.0296 H   0  0  0  0  0  0  0  0  0  0  0  0
   -7.6991  -24.7199   31.7357 H   0  0  0  0  0  0  0  0  0  0  0  0
  1  2  1  0
  2  3  1  0
  3  4  1  0
  4  5  1  0
  5  6  1  0
  6  7  2  0
  6  8  1  0
  8  9  1  0
  9 10  1  0
 10 11  1  0
 11 12  2  0
 12 13  1  0
 13 14  1  0
 13 15  1  0
  2 16  1  0
 16 17  1  0
 17 18  2  0
 17 19  1  0
 19 20  1  0
 20 21  2  0
 21 22  1  0
 22 23  1  0
 15 10  2  0
 23 19  2  0
  1 24  1  0
  1 25  1  0
  1 26  1  0
  2 27  1  0
  3 28  1  0
  3 29  1  0
  4 30  1  0
  4 31  1  0
  5 32  1  0
  8 33  1  0
  8 34  1  0
 11 35  1  0
 14 36  1  0
 14 37  1  0
 14 38  1  0
 15 39  1  0
 16 40  1  0
 20 41  1  0
 22 42  1  0
 23 43  1  0
M  END
>  <Energy>  (812) 
1288.7126490420653

>  <compound_id>  (812) 
28362

>  <target_id>  (812) 
1

>  <reference_id>  (812) 
81

>  <inspiration_ids>  (812) 
[96, 81]

>  <energy_score>  (812) 
1235.9010623011745

>  <distance_score>  (812) 
12.515218076153984

>  <path>  (812) 
/opt/xchem-fragalysis-2/maxwin/BulkDock/SCRATCH/511023/C28362-P81/C28362-P81.minimised.mol

>  <scratch_subdir>  (812) 
/opt/xchem-fragalysis-2/maxwin/BulkDock/SCRATCH/511023/C28362-P81

>  <fragmenstein_runtime>  (812) 
160.37890648841858

>  <fragmenstein_outcome>  (812) 
too moved

>  <fragmenstein_mode>  (812) 
expansion

>  <fragmenstein_error>  (812) 


$$$$
C28363-P96
     RDKit          3D

 45 46  0  0  0  0  0  0  0  0999 V2000
   -3.2683  -19.5947   27.8694 C   0  0  0  0  0  0  0  0  0  0  0  0
   -3.9436  -18.9313   26.3009 C   0  0  0  0  0  0  0  0  0  0  0  0
   -3.1609  -17.9068   25.9092 N   0  0  0  0  0  0  0  0  0  0  0  0
   -4.6039  -19.3107   25.9389 C   0  0  0  0  0  0  0  0  0  0  0  0
   -5.6332  -20.6948   26.8254 C   0  0  0  0  0  0  0  0  0  0  0  0
   -7.1888  -20.4389   27.3398 N   0  0  0  0  0  0  0  0  0  0  0  0
   -8.2686  -21.4649   28.2336 C   0  0  0  0  0  0  0  0  0  0  0  0
   -8.0808  -22.5583   28.7414 O   0  0  0  0  0  0  0  0  0  0  0  0
   -9.8869  -21.0020   28.4380 C   0  0  0  0  0  0  0  0  0  0  0  0
  -10.6904  -22.1762   28.8410 N   0  0  0  0  0  0  0  0  0  0  0  0
  -11.2081  -22.4352   30.0807 C   0  0  0  0  0  0  0  0  0  0  0  0
  -11.9528  -23.5841   29.9482 C   0  0  0  0  0  0  0  0  0  0  0  0
  -11.8554  -23.9186   28.5860 C   0  0  0  0  0  0  0  0  0  0  0  0
  -11.1183  -23.0419   27.9022 N   0  0  0  0  0  0  0  0  0  0  0  0
   -1.4862  -17.8181   26.3538 C   0  0  0  0  0  0  0  0  0  0  0  0
   -0.7838  -18.5760   26.8996 O   0  0  0  0  0  0  0  0  0  0  0  0
   -0.4869  -16.1591   25.8948 C   0  0  0  0  0  0  0  0  0  0  0  0
    1.2924  -15.1140   26.1136 C   0  0  0  0  0  0  0  0  0  0  0  0
    3.0614  -14.2774   25.6025 C   0  0  0  0  0  0  0  0  0  0  0  0
    3.6810  -13.2714   24.0843 C   0  0  0  0  0  0  0  0  0  0  0  0
    3.8090  -12.0071   23.9944 N   0  0  0  0  0  0  0  0  0  0  0  0
    3.5751  -11.8271   25.2462 N   0  0  0  0  0  0  0  0  0  0  0  0
    3.0546  -12.8900   25.9496 C   0  0  0  0  0  0  0  0  0  0  0  0
   -3.7623  -19.0939   28.6966 H   0  0  0  0  0  0  0  0  0  0  0  0
   -3.3055  -20.6841   27.8596 H   0  0  0  0  0  0  0  0  0  0  0  0
   -2.2299  -19.3717   28.0542 H   0  0  0  0  0  0  0  0  0  0  0  0
   -2.9179  -19.5971   25.9789 H   0  0  0  0  0  0  0  0  0  0  0  0
   -4.3015  -18.0758   27.1216 H   0  0  0  0  0  0  0  0  0  0  0  0
   -4.4751  -19.8830   24.8599 H   0  0  0  0  0  0  0  0  0  0  0  0
   -5.5696  -18.6728   25.5475 H   0  0  0  0  0  0  0  0  0  0  0  0
   -5.0883  -21.3287   27.5042 H   0  0  0  0  0  0  0  0  0  0  0  0
   -5.8284  -21.3391   25.9575 H   0  0  0  0  0  0  0  0  0  0  0  0
   -7.6912  -19.6280   26.9851 H   0  0  0  0  0  0  0  0  0  0  0  0
  -10.4254  -20.6543   27.5600 H   0  0  0  0  0  0  0  0  0  0  0  0
  -10.0123  -20.2865   29.2495 H   0  0  0  0  0  0  0  0  0  0  0  0
  -10.9937  -21.8131   30.9380 H   0  0  0  0  0  0  0  0  0  0  0  0
  -12.4929  -24.1045   30.7251 H   0  0  0  0  0  0  0  0  0  0  0  0
  -12.2994  -24.7533   28.0584 H   0  0  0  0  0  0  0  0  0  0  0  0
   -1.3059  -15.5063   26.2041 H   0  0  0  0  0  0  0  0  0  0  0  0
   -0.6251  -16.3151   24.8658 H   0  0  0  0  0  0  0  0  0  0  0  0
    1.8742  -15.9186   25.7510 H   0  0  0  0  0  0  0  0  0  0  0  0
    1.2128  -14.6946   27.1177 H   0  0  0  0  0  0  0  0  0  0  0  0
    3.9320  -13.6639   23.0534 H   0  0  0  0  0  0  0  0  0  0  0  0
    3.8066  -10.8815   25.5242 H   0  0  0  0  0  0  0  0  0  0  0  0
    2.0801  -12.6094   26.2873 H   0  0  0  0  0  0  0  0  0  0  0  0
  1  2  1  0
  2  3  1  0
  3  4  1  0
  4  5  1  0
  5  6  1  0
  6  7  1  0
  7  8  2  0
  7  9  1  0
  9 10  1  0
 10 11  1  0
 11 12  2  0
 12 13  1  0
 13 14  2  0
  3 15  1  0
 15 16  2  0
 15 17  1  0
 17 18  1  0
 18 19  1  0
 19 20  1  0
 20 21  2  0
 21 22  1  0
 22 23  1  0
 14 10  1  0
 23 19  2  0
  1 24  1  0
  1 25  1  0
  1 26  1  0
  2 27  1  0
  2 28  1  0
  4 29  1  0
  4 30  1  0
  5 31  1  0
  5 32  1  0
  6 33  1  0
  9 34  1  0
  9 35  1  0
 11 36  1  0
 12 37  1  0
 13 38  1  0
 17 39  1  0
 17 40  1  0
 18 41  1  0
 18 42  1  0
 20 43  1  0
 22 44  1  0
 23 45  1  0
M  END
>  <Energy>  (813) 
1357.43308901573

>  <compound_id>  (813) 
28363

>  <target_id>  (813) 
1

>  <reference_id>  (813) 
96

>  <inspiration_ids>  (813) 
[96, 81]

>  <energy_score>  (813) 
1311.3236768862403

>  <distance_score>  (813) 
13.152791608548837

>  <path>  (813) 
/opt/xchem-fragalysis-2/maxwin/BulkDock/SCRATCH/511023/C28363-P96/C28363-P96.minimised.mol

>  <scratch_subdir>  (813) 
/opt/xchem-fragalysis-2/maxwin/BulkDock/SCRATCH/511023/C28363-P96

>  <fragmenstein_runtime>  (813) 
261.4498338699341

>  <fragmenstein_outcome>  (813) 
too moved

>  <fragmenstein_mode>  (813) 
expansion

>  <fragmenstein_error>  (813) 


$$$$
C28363-P81
     RDKit          3D

 45 46  0  0  0  0  0  0  0  0999 V2000
    3.4464  -15.6980   16.9521 C   0  0  0  0  0  0  0  0  0  0  0  0
    4.8545  -14.9240   16.2196 C   0  0  0  0  0  0  0  0  0  0  0  0
    5.1102  -13.0117   16.0281 N   0  0  0  0  0  0  0  0  0  0  0  0
    4.7119  -14.2818   15.7975 C   0  0  0  0  0  0  0  0  0  0  0  0
    5.6103  -14.3000   14.1769 C   0  0  0  0  0  0  0  0  0  0  0  0
    5.1153  -15.2511   13.1991 N   0  0  0  0  0  0  0  0  0  0  0  0
    4.7792  -16.6435   13.3232 C   0  0  0  0  0  0  0  0  0  0  0  0
    4.7461  -17.3578   14.2859 O   0  0  0  0  0  0  0  0  0  0  0  0
    4.3161  -17.2097   11.9830 C   0  0  0  0  0  0  0  0  0  0  0  0
    5.3265  -17.0731   10.9534 N   0  0  0  0  0  0  0  0  0  0  0  0
    6.1513  -18.0440   10.4657 C   0  0  0  0  0  0  0  0  0  0  0  0
    6.9180  -17.4390    9.4975 C   0  0  0  0  0  0  0  0  0  0  0  0
    6.4790  -16.1024    9.4746 C   0  0  0  0  0  0  0  0  0  0  0  0
    5.5089  -15.8706   10.3640 N   0  0  0  0  0  0  0  0  0  0  0  0
    4.1808  -11.7224   15.5909 C   0  0  0  0  0  0  0  0  0  0  0  0
    3.1136  -11.6376   15.1731 O   0  0  0  0  0  0  0  0  0  0  0  0
    5.1599  -10.5762   15.8088 C   0  0  0  0  0  0  0  0  0  0  0  0
    4.5299   -9.2307   15.4566 C   0  0  0  0  0  0  0  0  0  0  0  0
    5.5275   -8.1215   15.3614 C   0  0  0  0  0  0  0  0  0  0  0  0
    6.7008   -8.0920   14.5768 C   0  0  0  0  0  0  0  0  0  0  0  0
    7.3518   -6.9414   14.6879 N   0  0  0  0  0  0  0  0  0  0  0  0
    6.5827   -6.2082   15.5076 N   0  0  0  0  0  0  0  0  0  0  0  0
    5.4919   -6.8794   15.9617 C   0  0  0  0  0  0  0  0  0  0  0  0
    3.8074  -16.6477   17.3445 H   0  0  0  0  0  0  0  0  0  0  0  0
    2.7239  -15.8870   16.1533 H   0  0  0  0  0  0  0  0  0  0  0  0
    3.0449  -15.0320   17.7181 H   0  0  0  0  0  0  0  0  0  0  0  0
    5.7012  -15.7581   15.8839 H   0  0  0  0  0  0  0  0  0  0  0  0
    5.4305  -14.9462   17.3154 H   0  0  0  0  0  0  0  0  0  0  0  0
    3.8372  -14.3379   14.8681 H   0  0  0  0  0  0  0  0  0  0  0  0
    3.5587  -13.7669   16.0394 H   0  0  0  0  0  0  0  0  0  0  0  0
    5.5544  -13.3035   13.7195 H   0  0  0  0  0  0  0  0  0  0  0  0
    6.6644  -14.5302   14.3832 H   0  0  0  0  0  0  0  0  0  0  0  0
    5.1164  -14.9949   12.2059 H   0  0  0  0  0  0  0  0  0  0  0  0
    4.0881  -18.2754   12.0926 H   0  0  0  0  0  0  0  0  0  0  0  0
    3.4093  -16.6933   11.6510 H   0  0  0  0  0  0  0  0  0  0  0  0
    6.1275  -19.0591   10.8379 H   0  0  0  0  0  0  0  0  0  0  0  0
    7.6857  -17.8978    8.8908 H   0  0  0  0  0  0  0  0  0  0  0  0
    6.8259  -15.2900    8.8483 H   0  0  0  0  0  0  0  0  0  0  0  0
    6.0315  -10.7707   15.1721 H   0  0  0  0  0  0  0  0  0  0  0  0
    5.4990  -10.5742   16.8500 H   0  0  0  0  0  0  0  0  0  0  0  0
    3.7633   -8.9832   16.2020 H   0  0  0  0  0  0  0  0  0  0  0  0
    4.0102   -9.2965   14.4917 H   0  0  0  0  0  0  0  0  0  0  0  0
    7.0999   -8.8602   13.9265 H   0  0  0  0  0  0  0  0  0  0  0  0
    6.8810   -5.2612   15.7193 H   0  0  0  0  0  0  0  0  0  0  0  0
    4.7798   -6.4200   16.6324 H   0  0  0  0  0  0  0  0  0  0  0  0
  1  2  1  0
  2  3  1  0
  3  4  1  0
  4  5  1  0
  5  6  1  0
  6  7  1  0
  7  8  2  0
  7  9  1  0
  9 10  1  0
 10 11  1  0
 11 12  2  0
 12 13  1  0
 13 14  2  0
  3 15  1  0
 15 16  2  0
 15 17  1  0
 17 18  1  0
 18 19  1  0
 19 20  1  0
 20 21  2  0
 21 22  1  0
 22 23  1  0
 14 10  1  0
 23 19  2  0
  1 24  1  0
  1 25  1  0
  1 26  1  0
  2 27  1  0
  2 28  1  0
  4 29  1  0
  4 30  1  0
  5 31  1  0
  5 32  1  0
  6 33  1  0
  9 34  1  0
  9 35  1  0
 11 36  1  0
 12 37  1  0
 13 38  1  0
 17 39  1  0
 17 40  1  0
 18 41  1  0
 18 42  1  0
 20 43  1  0
 22 44  1  0
 23 45  1  0
M  END
>  <Energy>  (814) 
770.43844069195086

>  <compound_id>  (814) 
28363

>  <target_id>  (814) 
1

>  <reference_id>  (814) 
81

>  <inspiration_ids>  (814) 
[96, 81]

>  <energy_score>  (814) 
724.3290285624502

>  <distance_score>  (814) 
18.802371923742363

>  <path>  (814) 
/opt/xchem-fragalysis-2/maxwin/BulkDock/SCRATCH/511023/C28363-P81/C28363-P81.minimised.mol

>  <scratch_subdir>  (814) 
/opt/xchem-fragalysis-2/maxwin/BulkDock/SCRATCH/511023/C28363-P81

>  <fragmenstein_runtime>  (814) 
248.2274374961853

>  <fragmenstein_outcome>  (814) 
too moved

>  <fragmenstein_mode>  (814) 
expansion

>  <fragmenstein_error>  (814) 


$$$$
C18696-P96
     RDKit          3D

 37 38  0  0  0  0  0  0  0  0999 V2000
    3.7690  -12.9517   22.5807 C   0  0  0  0  0  0  0  0  0  0  0  0
    3.3862  -13.5153   21.1518 C   0  0  0  0  0  0  0  0  0  0  0  0
    3.1451  -15.4244   22.2591 C   0  0  0  0  0  0  0  0  0  0  0  0
    2.4028  -17.1904   23.0597 N   0  0  0  0  0  0  0  0  0  0  0  0
    0.6425  -18.2500   22.6780 C   0  0  0  0  0  0  0  0  0  0  0  0
   -0.1298  -17.6890   21.9198 O   0  0  0  0  0  0  0  0  0  0  0  0
   -0.0953  -20.0125   23.0341 C   0  0  0  0  0  0  0  0  0  0  0  0
   -1.5745  -20.1338   22.7053 C   0  0  0  0  0  0  0  0  0  0  0  0
   -2.1136  -21.3358   23.0650 C   0  0  0  0  0  0  0  0  0  0  0  0
   -1.0666  -21.9800   23.5931 N   0  0  0  0  0  0  0  0  0  0  0  0
    0.0273  -21.2233   23.7485 N   0  0  0  0  0  0  0  0  0  0  0  0
    4.2855  -12.5713   19.3416 N   0  0  0  0  0  0  0  0  0  0  0  0
    4.8034  -11.0041   18.6270 C   0  0  0  0  0  0  0  0  0  0  0  0
    6.2581  -10.0630   18.8541 C   0  0  0  0  0  0  0  0  0  0  0  0
    7.5886  -10.1711   18.3975 C   0  0  0  0  0  0  0  0  0  0  0  0
    8.2315   -8.9378   18.5832 C   0  0  0  0  0  0  0  0  0  0  0  0
    7.4818   -8.1400   19.3206 N   0  0  0  0  0  0  0  0  0  0  0  0
    6.4498   -8.9378   19.6861 N   0  0  0  0  0  0  0  0  0  0  0  0
    5.8699   -8.6106   20.9665 C   0  0  0  0  0  0  0  0  0  0  0  0
    3.1616  -12.0648   22.7748 H   0  0  0  0  0  0  0  0  0  0  0  0
    3.6667  -13.1647   23.6353 H   0  0  0  0  0  0  0  0  0  0  0  0
    4.7560  -13.2982   22.6672 H   0  0  0  0  0  0  0  0  0  0  0  0
    2.4131  -13.0226   21.0872 H   0  0  0  0  0  0  0  0  0  0  0  0
    3.7402  -15.1622   23.1307 H   0  0  0  0  0  0  0  0  0  0  0  0
    2.2762  -15.4647   22.8499 H   0  0  0  0  0  0  0  0  0  0  0  0
    2.9177  -17.6609   23.7348 H   0  0  0  0  0  0  0  0  0  0  0  0
   -2.1149  -19.3230   22.2942 H   0  0  0  0  0  0  0  0  0  0  0  0
   -3.1049  -21.7569   22.9837 H   0  0  0  0  0  0  0  0  0  0  0  0
   -1.0402  -22.9252   23.9592 H   0  0  0  0  0  0  0  0  0  0  0  0
    3.3433  -12.4586   18.8653 H   0  0  0  0  0  0  0  0  0  0  0  0
    3.9667  -10.3471   18.8092 H   0  0  0  0  0  0  0  0  0  0  0  0
    4.7447  -11.2316   17.5652 H   0  0  0  0  0  0  0  0  0  0  0  0
    8.0875  -10.9909   17.9174 H   0  0  0  0  0  0  0  0  0  0  0  0
    9.2102   -8.6167   18.2513 H   0  0  0  0  0  0  0  0  0  0  0  0
    6.2677   -7.6535   21.3190 H   0  0  0  0  0  0  0  0  0  0  0  0
    6.1340   -9.3863   21.6869 H   0  0  0  0  0  0  0  0  0  0  0  0
    4.8009   -8.5070   20.8422 H   0  0  0  0  0  0  0  0  0  0  0  0
  1  2  1  0
  2  3  1  0
  3  4  1  0
  4  5  1  0
  5  6  2  0
  5  7  1  0
  7  8  1  0
  8  9  2  0
  9 10  1  0
 10 11  1  0
  2 12  1  0
 12 13  1  0
 13 14  1  0
 14 15  2  0
 15 16  1  0
 16 17  2  0
 17 18  1  0
 18 19  1  0
 11  7  2  0
 18 14  1  0
  1 20  1  0
  1 21  1  0
  1 22  1  0
  2 23  1  0
  3 24  1  0
  3 25  1  0
  4 26  1  0
  8 27  1  0
  9 28  1  0
 10 29  1  0
 12 30  1  0
 13 31  1  0
 13 32  1  0
 15 33  1  0
 16 34  1  0
 19 35  1  0
 19 36  1  0
 19 37  1  0
M  END
>  <Energy>  (815) 
1069.8472170592779

>  <compound_id>  (815) 
18696

>  <target_id>  (815) 
1

>  <reference_id>  (815) 
96

>  <inspiration_ids>  (815) 
[96, 81]

>  <energy_score>  (815) 
993.8674189345516

>  <distance_score>  (815) 
11.185565545707023

>  <path>  (815) 
/opt/xchem-fragalysis-2/maxwin/BulkDock/SCRATCH/511023/C18696-P96/C18696-P96.minimised.mol

>  <scratch_subdir>  (815) 
/opt/xchem-fragalysis-2/maxwin/BulkDock/SCRATCH/511023/C18696-P96

>  <fragmenstein_runtime>  (815) 
12.45238709449768

>  <fragmenstein_outcome>  (815) 
too moved

>  <fragmenstein_mode>  (815) 
expansion

>  <fragmenstein_error>  (815) 


$$$$
C18696-P81
     RDKit          3D

 37 38  0  0  0  0  0  0  0  0999 V2000
    2.4754  -14.6349   18.3385 C   0  0  0  0  0  0  0  0  0  0  0  0
    2.2411  -14.9383   19.9044 C   0  0  0  0  0  0  0  0  0  0  0  0
    0.6205  -16.2259   20.2566 C   0  0  0  0  0  0  0  0  0  0  0  0
   -1.0268  -16.7367   19.9784 N   0  0  0  0  0  0  0  0  0  0  0  0
   -1.5950  -17.8049   19.0407 C   0  0  0  0  0  0  0  0  0  0  0  0
   -1.0480  -18.4783   18.2242 O   0  0  0  0  0  0  0  0  0  0  0  0
   -3.0512  -18.1983   19.1303 C   0  0  0  0  0  0  0  0  0  0  0  0
   -3.5069  -19.5861   19.0657 C   0  0  0  0  0  0  0  0  0  0  0  0
   -4.8759  -19.5644   18.9879 C   0  0  0  0  0  0  0  0  0  0  0  0
   -5.1764  -18.2512   18.8408 N   0  0  0  0  0  0  0  0  0  0  0  0
   -4.0981  -17.4358   18.8204 N   0  0  0  0  0  0  0  0  0  0  0  0
    3.1859  -13.4340   20.7034 N   0  0  0  0  0  0  0  0  0  0  0  0
    4.7742  -12.9415   20.0664 C   0  0  0  0  0  0  0  0  0  0  0  0
    5.3380  -11.9924   18.9536 C   0  0  0  0  0  0  0  0  0  0  0  0
    4.2621  -11.4862   17.5562 C   0  0  0  0  0  0  0  0  0  0  0  0
    4.6091   -9.5837   17.7781 C   0  0  0  0  0  0  0  0  0  0  0  0
    5.9032   -9.4817   18.4900 N   0  0  0  0  0  0  0  0  0  0  0  0
    6.2885  -10.9189   19.2274 N   0  0  0  0  0  0  0  0  0  0  0  0
    7.4383  -10.9534   20.1234 C   0  0  0  0  0  0  0  0  0  0  0  0
    2.6901  -15.4828   17.7031 H   0  0  0  0  0  0  0  0  0  0  0  0
    1.6774  -14.0821   17.8550 H   0  0  0  0  0  0  0  0  0  0  0  0
    3.4329  -14.1897   18.1799 H   0  0  0  0  0  0  0  0  0  0  0  0
    1.7052  -14.6562   20.6659 H   0  0  0  0  0  0  0  0  0  0  0  0
    0.7930  -17.2208   20.6013 H   0  0  0  0  0  0  0  0  0  0  0  0
    0.3349  -15.9201   21.2639 H   0  0  0  0  0  0  0  0  0  0  0  0
   -1.7617  -16.4153   20.6078 H   0  0  0  0  0  0  0  0  0  0  0  0
   -2.8799  -20.4660   19.0819 H   0  0  0  0  0  0  0  0  0  0  0  0
   -5.6234  -20.3434   18.9489 H   0  0  0  0  0  0  0  0  0  0  0  0
   -6.0890  -17.8367   18.6871 H   0  0  0  0  0  0  0  0  0  0  0  0
    3.1011  -13.6099   21.6884 H   0  0  0  0  0  0  0  0  0  0  0  0
    4.7327  -12.1329   20.7636 H   0  0  0  0  0  0  0  0  0  0  0  0
    4.2014  -13.1137   19.1922 H   0  0  0  0  0  0  0  0  0  0  0  0
    3.2559  -11.6677   17.3650 H   0  0  0  0  0  0  0  0  0  0  0  0
    4.0211   -8.8041   17.3134 H   0  0  0  0  0  0  0  0  0  0  0  0
    7.0879  -11.1264   21.1370 H   0  0  0  0  0  0  0  0  0  0  0  0
    8.1572  -11.7429   19.9744 H   0  0  0  0  0  0  0  0  0  0  0  0
    8.0051  -10.0331   19.9675 H   0  0  0  0  0  0  0  0  0  0  0  0
  1  2  1  0
  2  3  1  0
  3  4  1  0
  4  5  1  0
  5  6  2  0
  5  7  1  0
  7  8  1  0
  8  9  2  0
  9 10  1  0
 10 11  1  0
  2 12  1  0
 12 13  1  0
 13 14  1  0
 14 15  2  0
 15 16  1  0
 16 17  2  0
 17 18  1  0
 18 19  1  0
 11  7  2  0
 18 14  1  0
  1 20  1  0
  1 21  1  0
  1 22  1  0
  2 23  1  0
  3 24  1  0
  3 25  1  0
  4 26  1  0
  8 27  1  0
  9 28  1  0
 10 29  1  0
 12 30  1  0
 13 31  1  0
 13 32  1  0
 15 33  1  0
 16 34  1  0
 19 35  1  0
 19 36  1  0
 19 37  1  0
M  END
>  <Energy>  (816) 
645.48285631545798

>  <compound_id>  (816) 
18696

>  <target_id>  (816) 
1

>  <reference_id>  (816) 
81

>  <inspiration_ids>  (816) 
[96, 81]

>  <energy_score>  (816) 
569.5030581907398

>  <distance_score>  (816) 
12.671876005130953

>  <path>  (816) 
/opt/xchem-fragalysis-2/maxwin/BulkDock/SCRATCH/511023/C18696-P81/C18696-P81.minimised.mol

>  <scratch_subdir>  (816) 
/opt/xchem-fragalysis-2/maxwin/BulkDock/SCRATCH/511023/C18696-P81

>  <fragmenstein_runtime>  (816) 
18.00763463973999

>  <fragmenstein_outcome>  (816) 
too moved

>  <fragmenstein_mode>  (816) 
expansion

>  <fragmenstein_error>  (816) 


$$$$
C28364-P96
     RDKit          3D

 37 38  0  0  0  0  0  0  0  0999 V2000
    2.4542  -12.4891   21.7988 C   0  0  0  0  0  0  0  0  0  0  0  0
    1.4231  -11.4419   22.1288 C   0  0  0  0  0  0  0  0  0  0  0  0
    1.7840  -10.2985   20.8776 C   0  0  0  0  0  0  0  0  0  0  0  0
    2.4492   -8.5732   20.7424 N   0  0  0  0  0  0  0  0  0  0  0  0
    1.6210   -7.0110   20.4646 C   0  0  0  0  0  0  0  0  0  0  0  0
    0.4084   -6.8497   20.2015 O   0  0  0  0  0  0  0  0  0  0  0  0
    3.0218   -5.6866   20.8433 C   0  0  0  0  0  0  0  0  0  0  0  0
    4.3709   -5.0096   20.6292 C   0  0  0  0  0  0  0  0  0  0  0  0
    4.8871   -4.2201   21.5808 N   0  0  0  0  0  0  0  0  0  0  0  0
    3.8778   -4.1144   22.4108 N   0  0  0  0  0  0  0  0  0  0  0  0
    2.7977   -4.8537   22.0258 C   0  0  0  0  0  0  0  0  0  0  0  0
   -0.0975  -12.5928   22.1234 N   0  0  0  0  0  0  0  0  0  0  0  0
   -1.5760  -13.1500   23.1517 C   0  0  0  0  0  0  0  0  0  0  0  0
   -3.2070  -13.8972   23.7176 C   0  0  0  0  0  0  0  0  0  0  0  0
   -4.3922  -13.1765   24.0000 C   0  0  0  0  0  0  0  0  0  0  0  0
   -5.4137  -14.1065   24.2620 C   0  0  0  0  0  0  0  0  0  0  0  0
   -4.9225  -15.3334   24.3394 N   0  0  0  0  0  0  0  0  0  0  0  0
   -3.5817  -15.1157   24.3899 N   0  0  0  0  0  0  0  0  0  0  0  0
   -2.9141  -15.9100   25.4115 C   0  0  0  0  0  0  0  0  0  0  0  0
    2.1203  -13.4745   21.8528 H   0  0  0  0  0  0  0  0  0  0  0  0
    3.2924  -12.5922   22.4841 H   0  0  0  0  0  0  0  0  0  0  0  0
    2.4620  -12.6874   20.7502 H   0  0  0  0  0  0  0  0  0  0  0  0
    1.2660  -11.0463   23.0985 H   0  0  0  0  0  0  0  0  0  0  0  0
    2.4478  -10.7861   20.1731 H   0  0  0  0  0  0  0  0  0  0  0  0
    0.7016  -10.2316   20.7456 H   0  0  0  0  0  0  0  0  0  0  0  0
    3.4992   -8.3975   20.8466 H   0  0  0  0  0  0  0  0  0  0  0  0
    5.0097   -5.0605   19.7663 H   0  0  0  0  0  0  0  0  0  0  0  0
    3.9593   -3.4705   23.1904 H   0  0  0  0  0  0  0  0  0  0  0  0
    1.8627   -4.7090   22.5574 H   0  0  0  0  0  0  0  0  0  0  0  0
   -0.1218  -12.0505   23.0126 H   0  0  0  0  0  0  0  0  0  0  0  0
   -1.8565  -13.6284   22.2164 H   0  0  0  0  0  0  0  0  0  0  0  0
   -1.9073  -12.2017   23.5824 H   0  0  0  0  0  0  0  0  0  0  0  0
   -4.5191  -12.1075   23.9068 H   0  0  0  0  0  0  0  0  0  0  0  0
   -6.4755  -13.9414   24.3907 H   0  0  0  0  0  0  0  0  0  0  0  0
   -2.0615  -16.4412   25.0033 H   0  0  0  0  0  0  0  0  0  0  0  0
   -3.6148  -16.6556   25.8026 H   0  0  0  0  0  0  0  0  0  0  0  0
   -2.6268  -15.2460   26.2311 H   0  0  0  0  0  0  0  0  0  0  0  0
  1  2  1  0
  2  3  1  0
  3  4  1  0
  4  5  1  0
  5  6  2  0
  5  7  1  0
  7  8  1  0
  8  9  2  0
  9 10  1  0
 10 11  1  0
  2 12  1  0
 12 13  1  0
 13 14  1  0
 14 15  2  0
 15 16  1  0
 16 17  2  0
 17 18  1  0
 18 19  1  0
 11  7  2  0
 18 14  1  0
  1 20  1  0
  1 21  1  0
  1 22  1  0
  2 23  1  0
  3 24  1  0
  3 25  1  0
  4 26  1  0
  8 27  1  0
 10 28  1  0
 11 29  1  0
 12 30  1  0
 13 31  1  0
 13 32  1  0
 15 33  1  0
 16 34  1  0
 19 35  1  0
 19 36  1  0
 19 37  1  0
M  END
>  <Energy>  (817) 
573.48567715609761

>  <compound_id>  (817) 
28364

>  <target_id>  (817) 
1

>  <reference_id>  (817) 
96

>  <inspiration_ids>  (817) 
[96, 81]

>  <energy_score>  (817) 
538.8363996856733

>  <distance_score>  (817) 
12.245704003383395

>  <path>  (817) 
/opt/xchem-fragalysis-2/maxwin/BulkDock/SCRATCH/511023/C28364-P96/C28364-P96.minimised.mol

>  <scratch_subdir>  (817) 
/opt/xchem-fragalysis-2/maxwin/BulkDock/SCRATCH/511023/C28364-P96

>  <fragmenstein_runtime>  (817) 
12.807017087936401

>  <fragmenstein_outcome>  (817) 
too moved

>  <fragmenstein_mode>  (817) 
expansion

>  <fragmenstein_error>  (817) 


$$$$
C28364-P81
     RDKit          3D

 37 38  0  0  0  0  0  0  0  0999 V2000
   -8.1188  -13.3069   26.7285 C   0  0  0  0  0  0  0  0  0  0  0  0
   -8.6292  -13.8507   25.4022 C   0  0  0  0  0  0  0  0  0  0  0  0
   -7.7760  -13.2503   24.1782 C   0  0  0  0  0  0  0  0  0  0  0  0
   -6.8574  -12.0833   24.2230 N   0  0  0  0  0  0  0  0  0  0  0  0
   -7.0402  -10.7098   23.7849 C   0  0  0  0  0  0  0  0  0  0  0  0
   -8.0073  -10.1524   23.3514 O   0  0  0  0  0  0  0  0  0  0  0  0
   -5.7651   -9.8805   23.7852 C   0  0  0  0  0  0  0  0  0  0  0  0
   -4.5575   -9.9070   24.5414 C   0  0  0  0  0  0  0  0  0  0  0  0
   -3.5909   -9.0869   24.0856 N   0  0  0  0  0  0  0  0  0  0  0  0
   -4.1802   -8.4698   23.0471 N   0  0  0  0  0  0  0  0  0  0  0  0
   -5.4653   -8.8871   22.8468 C   0  0  0  0  0  0  0  0  0  0  0  0
   -8.6322  -15.3570   25.3275 N   0  0  0  0  0  0  0  0  0  0  0  0
   -9.6125  -16.2555   26.1144 C   0  0  0  0  0  0  0  0  0  0  0  0
   -8.8902  -17.2250   27.1016 C   0  0  0  0  0  0  0  0  0  0  0  0
   -7.6435  -16.6566   27.5694 C   0  0  0  0  0  0  0  0  0  0  0  0
   -7.1380  -17.4980   28.4917 C   0  0  0  0  0  0  0  0  0  0  0  0
   -7.8946  -18.5624   28.6402 N   0  0  0  0  0  0  0  0  0  0  0  0
   -8.9396  -18.7574   27.8173 N   0  0  0  0  0  0  0  0  0  0  0  0
   -9.4135  -20.6668   27.5699 C   0  0  0  0  0  0  0  0  0  0  0  0
   -8.2356  -12.2181   26.7635 H   0  0  0  0  0  0  0  0  0  0  0  0
   -7.0566  -13.5276   26.8739 H   0  0  0  0  0  0  0  0  0  0  0  0
   -8.6821  -13.7175   27.5718 H   0  0  0  0  0  0  0  0  0  0  0  0
   -9.6638  -13.5138   25.2624 H   0  0  0  0  0  0  0  0  0  0  0  0
   -7.1282  -14.0536   23.8028 H   0  0  0  0  0  0  0  0  0  0  0  0
   -8.4873  -13.0428   23.3686 H   0  0  0  0  0  0  0  0  0  0  0  0
   -5.8819  -12.2300   24.4520 H   0  0  0  0  0  0  0  0  0  0  0  0
   -4.3353  -10.5381   25.3925 H   0  0  0  0  0  0  0  0  0  0  0  0
   -3.6553   -7.7801   22.5183 H   0  0  0  0  0  0  0  0  0  0  0  0
   -6.0574   -8.4984   22.0300 H   0  0  0  0  0  0  0  0  0  0  0  0
   -8.7335  -15.6236   24.3484 H   0  0  0  0  0  0  0  0  0  0  0  0
  -10.3033  -15.6044   26.6546 H   0  0  0  0  0  0  0  0  0  0  0  0
  -10.1173  -16.7944   25.3264 H   0  0  0  0  0  0  0  0  0  0  0  0
   -7.2259  -15.7080   27.2832 H   0  0  0  0  0  0  0  0  0  0  0  0
   -6.2663  -17.3715   29.1200 H   0  0  0  0  0  0  0  0  0  0  0  0
  -10.0119  -21.0348   28.5036 H   0  0  0  0  0  0  0  0  0  0  0  0
  -10.1130  -20.8925   26.7656 H   0  0  0  0  0  0  0  0  0  0  0  0
   -8.3743  -21.1740   27.3491 H   0  0  0  0  0  0  0  0  0  0  0  0
  1  2  1  0
  2  3  1  0
  3  4  1  0
  4  5  1  0
  5  6  2  0
  5  7  1  0
  7  8  1  0
  8  9  2  0
  9 10  1  0
 10 11  1  0
  2 12  1  0
 12 13  1  0
 13 14  1  0
 14 15  2  0
 15 16  1  0
 16 17  2  0
 17 18  1  0
 18 19  1  0
 11  7  2  0
 18 14  1  0
  1 20  1  0
  1 21  1  0
  1 22  1  0
  2 23  1  0
  3 24  1  0
  3 25  1  0
  4 26  1  0
  8 27  1  0
 10 28  1  0
 11 29  1  0
 12 30  1  0
 13 31  1  0
 13 32  1  0
 15 33  1  0
 16 34  1  0
 19 35  1  0
 19 36  1  0
 19 37  1  0
M  END
>  <Energy>  (818) 
215.81770075389502

>  <compound_id>  (818) 
28364

>  <target_id>  (818) 
1

>  <reference_id>  (818) 
81

>  <inspiration_ids>  (818) 
[96, 81]

>  <energy_score>  (818) 
181.1684232834789

>  <distance_score>  (818) 
14.937640163060193

>  <path>  (818) 
/opt/xchem-fragalysis-2/maxwin/BulkDock/SCRATCH/511023/C28364-P81/C28364-P81.minimised.mol

>  <scratch_subdir>  (818) 
/opt/xchem-fragalysis-2/maxwin/BulkDock/SCRATCH/511023/C28364-P81

>  <fragmenstein_runtime>  (818) 
32.00715684890747

>  <fragmenstein_outcome>  (818) 
too moved

>  <fragmenstein_mode>  (818) 
expansion

>  <fragmenstein_error>  (818) 


$$$$
C46484-P96
     RDKit          3D

 37 39  0  0  0  0  0  0  0  0999 V2000
   -3.1603  -20.4876   20.8723 C   0  0  0  0  0  0  0  0  0  0  0  0
   -2.2875  -19.6119   21.8643 C   0  0  0  0  0  0  0  0  0  0  0  0
   -1.8681  -20.3438   22.9113 N   0  0  0  0  0  0  0  0  0  0  0  0
   -0.5776  -20.1928   22.8397 N   0  0  0  0  0  0  0  0  0  0  0  0
   -0.4635  -18.8709   22.4865 C   0  0  0  0  0  0  0  0  0  0  0  0
   -1.4019  -18.1027   21.8154 C   0  0  0  0  0  0  0  0  0  0  0  0
   -0.8513  -16.7061   20.0196 S   0  0  0  0  0  0  0  0  0  0  0  0
    0.3650  -17.3996   20.1556 O   0  0  0  0  0  0  0  0  0  0  0  0
   -1.8472  -17.0358   19.0174 O   0  0  0  0  0  0  0  0  0  0  0  0
    0.2773  -14.8967   19.1451 N   0  0  0  0  0  0  0  0  0  0  0  0
    1.5759  -13.9938   17.7108 C   0  0  0  0  0  0  0  0  0  0  0  0
    2.8917  -12.6569   17.0231 C   0  0  0  0  0  0  0  0  0  0  0  0
    2.2147  -11.8218   16.1682 F   0  0  0  0  0  0  0  0  0  0  0  0
    3.1927  -11.7466   18.0865 F   0  0  0  0  0  0  0  0  0  0  0  0
    4.3878  -12.6739   16.3094 C   0  0  0  0  0  0  0  0  0  0  0  0
    4.6957  -11.5080   15.6307 N   0  0  0  0  0  0  0  0  0  0  0  0
    6.0151  -11.4675   15.4474 N   0  0  0  0  0  0  0  0  0  0  0  0
    6.5779  -12.6136   15.8358 C   0  0  0  0  0  0  0  0  0  0  0  0
    5.5876  -13.4366   16.3229 C   0  0  0  0  0  0  0  0  0  0  0  0
    6.2083  -14.7040   16.7545 C   0  0  0  0  0  0  0  0  0  0  0  0
    7.7375  -14.3393   16.8365 C   0  0  0  0  0  0  0  0  0  0  0  0
    7.9595  -13.1018   15.9079 C   0  0  0  0  0  0  0  0  0  0  0  0
   -4.1205  -20.7572   21.3260 H   0  0  0  0  0  0  0  0  0  0  0  0
   -3.3220  -19.9995   19.9066 H   0  0  0  0  0  0  0  0  0  0  0  0
   -2.6417  -21.4334   20.6728 H   0  0  0  0  0  0  0  0  0  0  0  0
   -2.2335  -21.2168   23.2794 H   0  0  0  0  0  0  0  0  0  0  0  0
    0.4370  -18.3795   22.6139 H   0  0  0  0  0  0  0  0  0  0  0  0
    0.1082  -15.6158   18.4503 H   0  0  0  0  0  0  0  0  0  0  0  0
    1.5112  -13.2686   18.5147 H   0  0  0  0  0  0  0  0  0  0  0  0
    1.0314  -14.0778   16.7631 H   0  0  0  0  0  0  0  0  0  0  0  0
    6.4257  -10.6341   15.0400 H   0  0  0  0  0  0  0  0  0  0  0  0
    6.0921  -15.4423   15.9582 H   0  0  0  0  0  0  0  0  0  0  0  0
    5.8415  -15.1102   17.6944 H   0  0  0  0  0  0  0  0  0  0  0  0
    7.9888  -14.0601   17.8670 H   0  0  0  0  0  0  0  0  0  0  0  0
    8.3769  -15.1839   16.5610 H   0  0  0  0  0  0  0  0  0  0  0  0
    8.3214  -13.4156   14.9243 H   0  0  0  0  0  0  0  0  0  0  0  0
    8.6560  -12.3874   16.3535 H   0  0  0  0  0  0  0  0  0  0  0  0
  1  2  1  0
  2  3  1  0
  3  4  1  0
  4  5  2  0
  5  6  1  0
  6  7  1  0
  7  8  2  0
  7  9  2  0
  7 10  1  0
 10 11  1  0
 11 12  1  0
 12 13  1  0
 12 14  1  0
 12 15  1  0
 15 16  2  0
 16 17  1  0
 17 18  1  0
 18 19  2  0
 19 20  1  0
 20 21  1  0
 21 22  1  0
  6  2  2  0
 19 15  1  0
 22 18  1  0
  1 23  1  0
  1 24  1  0
  1 25  1  0
  3 26  1  0
  5 27  1  0
 10 28  1  0
 11 29  1  0
 11 30  1  0
 17 31  1  0
 20 32  1  0
 20 33  1  0
 21 34  1  0
 21 35  1  0
 22 36  1  0
 22 37  1  0
M  END
>  <Energy>  (819) 
755.5499658132054

>  <compound_id>  (819) 
46484

>  <target_id>  (819) 
1

>  <reference_id>  (819) 
96

>  <inspiration_ids>  (819) 
[96, 81]

>  <energy_score>  (819) 
636.784365664319

>  <distance_score>  (819) 
12.413788462687984

>  <path>  (819) 
/opt/xchem-fragalysis-2/maxwin/BulkDock/SCRATCH/511023/C46484-P96/C46484-P96.minimised.mol

>  <scratch_subdir>  (819) 
/opt/xchem-fragalysis-2/maxwin/BulkDock/SCRATCH/511023/C46484-P96

>  <fragmenstein_runtime>  (819) 
11.225478172302246

>  <fragmenstein_outcome>  (819) 
too moved

>  <fragmenstein_mode>  (819) 
expansion

>  <fragmenstein_error>  (819) 


$$$$
C46484-P81
     RDKit          3D

 37 39  0  0  0  0  0  0  0  0999 V2000
   -3.2013  -16.8914   25.9631 C   0  0  0  0  0  0  0  0  0  0  0  0
   -3.1050  -15.5976   25.1166 C   0  0  0  0  0  0  0  0  0  0  0  0
   -4.3722  -15.0550   24.9962 N   0  0  0  0  0  0  0  0  0  0  0  0
   -4.4246  -13.8400   25.5228 N   0  0  0  0  0  0  0  0  0  0  0  0
   -3.1670  -13.4237   25.3871 C   0  0  0  0  0  0  0  0  0  0  0  0
   -2.1417  -14.4743   25.0221 C   0  0  0  0  0  0  0  0  0  0  0  0
   -0.5451  -13.9477   23.4482 S   0  0  0  0  0  0  0  0  0  0  0  0
   -0.8659  -14.6369   22.2491 O   0  0  0  0  0  0  0  0  0  0  0  0
    0.5685  -14.2335   24.2048 O   0  0  0  0  0  0  0  0  0  0  0  0
    0.3983  -11.9680   22.7207 N   0  0  0  0  0  0  0  0  0  0  0  0
   -0.3370  -10.4007   22.0414 C   0  0  0  0  0  0  0  0  0  0  0  0
   -0.1782   -8.6573   22.2463 C   0  0  0  0  0  0  0  0  0  0  0  0
    0.4676   -8.2020   21.1341 F   0  0  0  0  0  0  0  0  0  0  0  0
   -1.5333   -8.4157   21.9701 F   0  0  0  0  0  0  0  0  0  0  0  0
    0.1435   -7.4255   23.5151 C   0  0  0  0  0  0  0  0  0  0  0  0
   -0.7156   -7.3913   24.5935 N   0  0  0  0  0  0  0  0  0  0  0  0
   -0.6452   -6.1666   25.1817 N   0  0  0  0  0  0  0  0  0  0  0  0
    0.0941   -5.2425   24.5415 C   0  0  0  0  0  0  0  0  0  0  0  0
    0.5871   -5.8298   23.4139 C   0  0  0  0  0  0  0  0  0  0  0  0
    0.8500   -4.6682   22.4241 C   0  0  0  0  0  0  0  0  0  0  0  0
    0.8795   -3.3934   23.3370 C   0  0  0  0  0  0  0  0  0  0  0  0
    0.1924   -3.7812   24.6663 C   0  0  0  0  0  0  0  0  0  0  0  0
   -4.1925  -17.3525   25.8768 H   0  0  0  0  0  0  0  0  0  0  0  0
   -2.4709  -17.6566   25.7048 H   0  0  0  0  0  0  0  0  0  0  0  0
   -3.0593  -16.6297   27.0188 H   0  0  0  0  0  0  0  0  0  0  0  0
   -5.2504  -15.5580   24.9159 H   0  0  0  0  0  0  0  0  0  0  0  0
   -3.0446  -12.3525   25.4210 H   0  0  0  0  0  0  0  0  0  0  0  0
    1.0624  -11.7602   23.4893 H   0  0  0  0  0  0  0  0  0  0  0  0
   -1.2758  -10.6467   21.5248 H   0  0  0  0  0  0  0  0  0  0  0  0
    0.3533  -10.3833   21.2203 H   0  0  0  0  0  0  0  0  0  0  0  0
   -1.2005   -6.0284   26.0161 H   0  0  0  0  0  0  0  0  0  0  0  0
    0.0297   -4.4765   21.7469 H   0  0  0  0  0  0  0  0  0  0  0  0
    1.6929   -4.7032   21.7446 H   0  0  0  0  0  0  0  0  0  0  0  0
    0.3702   -2.5501   22.8567 H   0  0  0  0  0  0  0  0  0  0  0  0
    1.9065   -3.0651   23.5263 H   0  0  0  0  0  0  0  0  0  0  0  0
   -0.7983   -3.3214   24.7368 H   0  0  0  0  0  0  0  0  0  0  0  0
    0.7927   -3.4760   25.5279 H   0  0  0  0  0  0  0  0  0  0  0  0
  1  2  1  0
  2  3  1  0
  3  4  1  0
  4  5  2  0
  5  6  1  0
  6  7  1  0
  7  8  2  0
  7  9  2  0
  7 10  1  0
 10 11  1  0
 11 12  1  0
 12 13  1  0
 12 14  1  0
 12 15  1  0
 15 16  2  0
 16 17  1  0
 17 18  1  0
 18 19  2  0
 19 20  1  0
 20 21  1  0
 21 22  1  0
  6  2  2  0
 19 15  1  0
 22 18  1  0
  1 23  1  0
  1 24  1  0
  1 25  1  0
  3 26  1  0
  5 27  1  0
 10 28  1  0
 11 29  1  0
 11 30  1  0
 17 31  1  0
 20 32  1  0
 20 33  1  0
 21 34  1  0
 21 35  1  0
 22 36  1  0
 22 37  1  0
M  END
>  <Energy>  (820) 
480.17851574455756

>  <compound_id>  (820) 
46484

>  <target_id>  (820) 
1

>  <reference_id>  (820) 
81

>  <inspiration_ids>  (820) 
[96, 81]

>  <energy_score>  (820) 
361.4129155956805

>  <distance_score>  (820) 
14.253594356837404

>  <path>  (820) 
/opt/xchem-fragalysis-2/maxwin/BulkDock/SCRATCH/511023/C46484-P81/C46484-P81.minimised.mol

>  <scratch_subdir>  (820) 
/opt/xchem-fragalysis-2/maxwin/BulkDock/SCRATCH/511023/C46484-P81

>  <fragmenstein_runtime>  (820) 
24.867538928985596

>  <fragmenstein_outcome>  (820) 
too moved

>  <fragmenstein_mode>  (820) 
expansion

>  <fragmenstein_error>  (820) 


$$$$
C18697-P96
     RDKit          3D

 28 29  0  0  0  0  0  0  0  0999 V2000
    0.0422   -3.9777   14.4829 C   0  0  0  0  0  0  0  0  0  0  0  0
    0.2693   -5.3751   14.2104 N   0  0  0  0  0  0  0  0  0  0  0  0
    0.2704   -6.3927   15.1091 C   0  0  0  0  0  0  0  0  0  0  0  0
    0.6252   -7.5766   14.4548 C   0  0  0  0  0  0  0  0  0  0  0  0
    1.0837   -9.0065   15.3308 C   0  0  0  0  0  0  0  0  0  0  0  0
    0.7712   -8.5885   16.4279 O   0  0  0  0  0  0  0  0  0  0  0  0
    1.5042  -10.9388   14.7415 C   0  0  0  0  0  0  0  0  0  0  0  0
    0.1513  -12.5762   15.0053 N   0  0  0  0  0  0  0  0  0  0  0  0
   -1.5875  -12.6530   15.8617 C   0  0  0  0  0  0  0  0  0  0  0  0
   -2.0315  -11.6934   16.4480 O   0  0  0  0  0  0  0  0  0  0  0  0
   -2.7851  -13.8679   15.8215 C   0  0  0  0  0  0  0  0  0  0  0  0
   -3.6312  -14.3822   14.7910 C   0  0  0  0  0  0  0  0  0  0  0  0
   -4.5742  -15.1808   15.4169 C   0  0  0  0  0  0  0  0  0  0  0  0
   -4.3342  -15.0714   16.7489 N   0  0  0  0  0  0  0  0  0  0  0  0
   -3.3608  -14.2014   17.0247 N   0  0  0  0  0  0  0  0  0  0  0  0
    0.5303   -7.1241   13.0879 C   0  0  0  0  0  0  0  0  0  0  0  0
    0.4217   -5.7965   12.9502 N   0  0  0  0  0  0  0  0  0  0  0  0
   -0.8915   -3.6790   14.0000 H   0  0  0  0  0  0  0  0  0  0  0  0
   -0.0276   -3.8231   15.5625 H   0  0  0  0  0  0  0  0  0  0  0  0
    0.8833   -3.4075   14.0805 H   0  0  0  0  0  0  0  0  0  0  0  0
    0.0600   -6.1982   16.1482 H   0  0  0  0  0  0  0  0  0  0  0  0
    1.8877  -10.9867   13.7053 H   0  0  0  0  0  0  0  0  0  0  0  0
    2.2966  -11.1683   15.4813 H   0  0  0  0  0  0  0  0  0  0  0  0
    0.3035  -13.4115   14.5149 H   0  0  0  0  0  0  0  0  0  0  0  0
   -3.5371  -14.2105   13.7285 H   0  0  0  0  0  0  0  0  0  0  0  0
   -5.3768  -15.7911   15.0300 H   0  0  0  0  0  0  0  0  0  0  0  0
   -4.8176  -15.5127   17.5249 H   0  0  0  0  0  0  0  0  0  0  0  0
    0.6361   -7.6877   12.1704 H   0  0  0  0  0  0  0  0  0  0  0  0
  1  2  1  0
  2  3  1  0
  3  4  2  0
  4  5  1  0
  5  6  2  0
  5  7  1  0
  7  8  1  0
  8  9  1  0
  9 10  2  0
  9 11  1  0
 11 12  1  0
 12 13  2  0
 13 14  1  0
 14 15  1  0
  4 16  1  0
 16 17  2  0
 17  2  1  0
 15 11  2  0
  1 18  1  0
  1 19  1  0
  1 20  1  0
  3 21  1  0
  7 22  1  0
  7 23  1  0
  8 24  1  0
 12 25  1  0
 13 26  1  0
 14 27  1  0
 16 28  1  0
M  END
>  <Energy>  (821) 
464.57643198067871

>  <compound_id>  (821) 
18697

>  <target_id>  (821) 
1

>  <reference_id>  (821) 
96

>  <inspiration_ids>  (821) 
[96, 81]

>  <energy_score>  (821) 
374.3469420440963

>  <distance_score>  (821) 
15.66205822867367

>  <path>  (821) 
/opt/xchem-fragalysis-2/maxwin/BulkDock/SCRATCH/511023/C18697-P96/C18697-P96.minimised.mol

>  <scratch_subdir>  (821) 
/opt/xchem-fragalysis-2/maxwin/BulkDock/SCRATCH/511023/C18697-P96

>  <fragmenstein_runtime>  (821) 
17.06497025489807

>  <fragmenstein_outcome>  (821) 
too moved

>  <fragmenstein_mode>  (821) 
expansion

>  <fragmenstein_error>  (821) 


$$$$
C18697-P81
     RDKit          3D

 28 29  0  0  0  0  0  0  0  0999 V2000
   11.1188  -12.3974   21.0127 C   0  0  0  0  0  0  0  0  0  0  0  0
   10.3515  -13.4358   20.3691 N   0  0  0  0  0  0  0  0  0  0  0  0
    9.0131  -13.7223   20.5248 C   0  0  0  0  0  0  0  0  0  0  0  0
    8.6125  -14.9300   19.7883 C   0  0  0  0  0  0  0  0  0  0  0  0
    7.1653  -16.3280   19.7867 C   0  0  0  0  0  0  0  0  0  0  0  0
    5.9492  -16.3918   19.5816 O   0  0  0  0  0  0  0  0  0  0  0  0
    7.6608  -18.1085   19.8293 C   0  0  0  0  0  0  0  0  0  0  0  0
    6.6719  -18.8715   20.7173 N   0  0  0  0  0  0  0  0  0  0  0  0
    6.8039  -19.3839   22.0595 C   0  0  0  0  0  0  0  0  0  0  0  0
    7.7497  -19.4132   22.7940 O   0  0  0  0  0  0  0  0  0  0  0  0
    5.4632  -19.8904   22.6320 C   0  0  0  0  0  0  0  0  0  0  0  0
    5.1440  -20.1449   24.0118 C   0  0  0  0  0  0  0  0  0  0  0  0
    3.8214  -20.5316   24.0569 C   0  0  0  0  0  0  0  0  0  0  0  0
    3.4051  -20.5180   22.7633 N   0  0  0  0  0  0  0  0  0  0  0  0
    4.3665  -20.1573   21.8923 N   0  0  0  0  0  0  0  0  0  0  0  0
   10.1042  -15.2993   19.4861 C   0  0  0  0  0  0  0  0  0  0  0  0
   11.0114  -14.3479   19.6693 N   0  0  0  0  0  0  0  0  0  0  0  0
   10.6468  -12.1407   21.9629 H   0  0  0  0  0  0  0  0  0  0  0  0
   11.1673  -11.5418   20.3361 H   0  0  0  0  0  0  0  0  0  0  0  0
   12.1286  -12.7679   21.2128 H   0  0  0  0  0  0  0  0  0  0  0  0
    8.4377  -13.0359   21.0983 H   0  0  0  0  0  0  0  0  0  0  0  0
    8.6832  -18.2217   20.2119 H   0  0  0  0  0  0  0  0  0  0  0  0
    7.5917  -18.5255   18.8276 H   0  0  0  0  0  0  0  0  0  0  0  0
    5.6882  -18.9395   20.4290 H   0  0  0  0  0  0  0  0  0  0  0  0
    5.8178  -20.0293   24.8499 H   0  0  0  0  0  0  0  0  0  0  0  0
    3.1667  -20.8049   24.8712 H   0  0  0  0  0  0  0  0  0  0  0  0
    2.4891  -20.7448   22.3898 H   0  0  0  0  0  0  0  0  0  0  0  0
   10.4566  -16.2597   19.1229 H   0  0  0  0  0  0  0  0  0  0  0  0
  1  2  1  0
  2  3  1  0
  3  4  2  0
  4  5  1  0
  5  6  2  0
  5  7  1  0
  7  8  1  0
  8  9  1  0
  9 10  2  0
  9 11  1  0
 11 12  1  0
 12 13  2  0
 13 14  1  0
 14 15  1  0
  4 16  1  0
 16 17  2  0
 17  2  1  0
 15 11  2  0
  1 18  1  0
  1 19  1  0
  1 20  1  0
  3 21  1  0
  7 22  1  0
  7 23  1  0
  8 24  1  0
 12 25  1  0
 13 26  1  0
 14 27  1  0
 16 28  1  0
M  END
>  <Energy>  (822) 
221.12359467802429

>  <compound_id>  (822) 
18697

>  <target_id>  (822) 
1

>  <reference_id>  (822) 
81

>  <inspiration_ids>  (822) 
[96, 81]

>  <energy_score>  (822) 
130.8941047414396

>  <distance_score>  (822) 
15.367491782152397

>  <path>  (822) 
/opt/xchem-fragalysis-2/maxwin/BulkDock/SCRATCH/511023/C18697-P81/C18697-P81.minimised.mol

>  <scratch_subdir>  (822) 
/opt/xchem-fragalysis-2/maxwin/BulkDock/SCRATCH/511023/C18697-P81

>  <fragmenstein_runtime>  (822) 
24.879093885421753

>  <fragmenstein_outcome>  (822) 
too moved

>  <fragmenstein_mode>  (822) 
expansion

>  <fragmenstein_error>  (822) 


$$$$
C46485-P96
     RDKit          3D

 45 48  0  0  0  0  0  0  0  0999 V2000
   -1.3985  -17.8372   29.3097 O   0  0  0  0  0  0  0  0  0  0  0  0
   -1.8107  -17.1929   28.0733 S   0  0  0  0  0  0  0  0  0  0  0  0
   -2.8449  -16.1778   28.0775 O   0  0  0  0  0  0  0  0  0  0  0  0
   -2.3551  -18.5558   26.9150 C   0  0  0  0  0  0  0  0  0  0  0  0
   -3.4420  -19.6294   27.1415 C   0  0  0  0  0  0  0  0  0  0  0  0
   -3.2990  -21.0251   26.9612 C   0  0  0  0  0  0  0  0  0  0  0  0
   -4.5977  -21.4577   26.7585 C   0  0  0  0  0  0  0  0  0  0  0  0
   -5.4771  -20.5740   27.4389 N   0  0  0  0  0  0  0  0  0  0  0  0
   -7.2696  -20.5650   27.6492 C   0  0  0  0  0  0  0  0  0  0  0  0
   -7.4021  -21.8556   27.1195 C   0  0  0  0  0  0  0  0  0  0  0  0
   -8.8892  -22.8689   27.4827 C   0  0  0  0  0  0  0  0  0  0  0  0
   -9.3914  -22.3572   28.7439 C   0  0  0  0  0  0  0  0  0  0  0  0
   -9.0492  -20.9212   28.4675 C   0  0  0  0  0  0  0  0  0  0  0  0
   -4.7603  -19.3849   26.9987 N   0  0  0  0  0  0  0  0  0  0  0  0
   -0.2793  -16.4532   27.2929 C   0  0  0  0  0  0  0  0  0  0  0  0
    0.4994  -15.2107   27.7755 C   0  0  0  0  0  0  0  0  0  0  0  0
   -0.0513  -13.9807   27.9316 N   0  0  0  0  0  0  0  0  0  0  0  0
    0.9852  -13.0936   27.9900 N   0  0  0  0  0  0  0  0  0  0  0  0
    2.1693  -13.7274   27.9610 C   0  0  0  0  0  0  0  0  0  0  0  0
    1.9093  -15.0646   27.8592 C   0  0  0  0  0  0  0  0  0  0  0  0
    3.1605  -15.8434   27.9203 C   0  0  0  0  0  0  0  0  0  0  0  0
    4.1492  -14.7805   28.5285 C   0  0  0  0  0  0  0  0  0  0  0  0
    3.5792  -13.3681   28.1502 C   0  0  0  0  0  0  0  0  0  0  0  0
   -1.4285  -19.1298   26.8037 H   0  0  0  0  0  0  0  0  0  0  0  0
   -2.6037  -18.0346   25.9848 H   0  0  0  0  0  0  0  0  0  0  0  0
   -2.3993  -21.5397   26.6516 H   0  0  0  0  0  0  0  0  0  0  0  0
   -4.9530  -22.1864   26.0548 H   0  0  0  0  0  0  0  0  0  0  0  0
   -7.3573  -19.6054   27.2216 H   0  0  0  0  0  0  0  0  0  0  0  0
   -6.6922  -21.9794   27.9285 H   0  0  0  0  0  0  0  0  0  0  0  0
   -6.9305  -22.0906   26.1624 H   0  0  0  0  0  0  0  0  0  0  0  0
   -8.7631  -23.9322   27.7022 H   0  0  0  0  0  0  0  0  0  0  0  0
   -9.6597  -22.8515   26.7053 H   0  0  0  0  0  0  0  0  0  0  0  0
  -10.4680  -22.5157   28.8656 H   0  0  0  0  0  0  0  0  0  0  0  0
   -8.8830  -22.8580   29.5739 H   0  0  0  0  0  0  0  0  0  0  0  0
   -9.5128  -20.2344   29.2144 H   0  0  0  0  0  0  0  0  0  0  0  0
   -9.8997  -20.6060   27.8205 H   0  0  0  0  0  0  0  0  0  0  0  0
    0.4043  -17.2964   27.3642 H   0  0  0  0  0  0  0  0  0  0  0  0
   -0.5594  -16.3089   26.2481 H   0  0  0  0  0  0  0  0  0  0  0  0
    0.7714  -12.1078   28.1054 H   0  0  0  0  0  0  0  0  0  0  0  0
    3.0880  -16.7252   28.5619 H   0  0  0  0  0  0  0  0  0  0  0  0
    3.4867  -16.1380   26.9209 H   0  0  0  0  0  0  0  0  0  0  0  0
    5.1827  -14.9231   28.2022 H   0  0  0  0  0  0  0  0  0  0  0  0
    4.1388  -14.8808   29.6229 H   0  0  0  0  0  0  0  0  0  0  0  0
    4.0243  -13.0080   27.2180 H   0  0  0  0  0  0  0  0  0  0  0  0
    3.7464  -12.6437   28.9509 H   0  0  0  0  0  0  0  0  0  0  0  0
  1  2  2  0
  2  3  2  0
  2  4  1  0
  4  5  1  0
  5  6  1  0
  6  7  2  0
  7  8  1  0
  8  9  1  0
  9 10  1  0
 10 11  1  0
 11 12  1  0
 12 13  1  0
  8 14  1  0
  2 15  1  0
 15 16  1  0
 16 17  2  0
 17 18  1  0
 18 19  1  0
 19 20  2  0
 20 21  1  0
 21 22  1  0
 22 23  1  0
 14  5  2  0
 20 16  1  0
 13  9  1  0
 23 19  1  0
  4 24  1  0
  4 25  1  0
  6 26  1  0
  7 27  1  0
  9 28  1  0
 10 29  1  0
 10 30  1  0
 11 31  1  0
 11 32  1  0
 12 33  1  0
 12 34  1  0
 13 35  1  0
 13 36  1  0
 15 37  1  0
 15 38  1  0
 18 39  1  0
 21 40  1  0
 21 41  1  0
 22 42  1  0
 22 43  1  0
 23 44  1  0
 23 45  1  0
M  END
>  <Energy>  (823) 
384.15088215064276

>  <compound_id>  (823) 
46485

>  <target_id>  (823) 
1

>  <reference_id>  (823) 
96

>  <inspiration_ids>  (823) 
[96, 81]

>  <energy_score>  (823) 
271.01016800050206

>  <distance_score>  (823) 
15.142861509166694

>  <path>  (823) 
/opt/xchem-fragalysis-2/maxwin/BulkDock/SCRATCH/511023/C46485-P96/C46485-P96.minimised.mol

>  <scratch_subdir>  (823) 
/opt/xchem-fragalysis-2/maxwin/BulkDock/SCRATCH/511023/C46485-P96

>  <fragmenstein_runtime>  (823) 
22.2523090839386

>  <fragmenstein_outcome>  (823) 
too moved

>  <fragmenstein_mode>  (823) 
expansion

>  <fragmenstein_error>  (823) 


$$$$
C46485-P81
     RDKit          3D

 45 48  0  0  0  0  0  0  0  0999 V2000
   -2.0653  -14.2154   16.5033 O   0  0  0  0  0  0  0  0  0  0  0  0
   -1.3832  -13.8546   17.7439 S   0  0  0  0  0  0  0  0  0  0  0  0
   -1.8012  -12.5237   18.2110 O   0  0  0  0  0  0  0  0  0  0  0  0
   -1.8687  -15.4951   19.3063 C   0  0  0  0  0  0  0  0  0  0  0  0
   -3.1143  -16.7141   19.2674 C   0  0  0  0  0  0  0  0  0  0  0  0
   -4.1675  -16.9946   18.3337 C   0  0  0  0  0  0  0  0  0  0  0  0
   -4.9543  -17.9736   18.8820 C   0  0  0  0  0  0  0  0  0  0  0  0
   -4.3513  -18.3339   20.0455 N   0  0  0  0  0  0  0  0  0  0  0  0
   -4.9037  -19.2942   20.9918 C   0  0  0  0  0  0  0  0  0  0  0  0
   -5.6559  -20.4575   20.3101 C   0  0  0  0  0  0  0  0  0  0  0  0
   -5.5558  -21.6152   21.2849 C   0  0  0  0  0  0  0  0  0  0  0  0
   -4.1350  -21.4912   21.7954 C   0  0  0  0  0  0  0  0  0  0  0  0
   -3.9244  -19.9887   21.9572 C   0  0  0  0  0  0  0  0  0  0  0  0
   -3.2269  -17.6126   20.2864 N   0  0  0  0  0  0  0  0  0  0  0  0
    0.9912  -13.8786   17.5432 C   0  0  0  0  0  0  0  0  0  0  0  0
    2.6197  -14.1971   18.5454 C   0  0  0  0  0  0  0  0  0  0  0  0
    2.4041  -14.3700   19.9363 N   0  0  0  0  0  0  0  0  0  0  0  0
    3.4134  -13.2071   20.7388 N   0  0  0  0  0  0  0  0  0  0  0  0
    4.3200  -12.5626   19.8876 C   0  0  0  0  0  0  0  0  0  0  0  0
    4.1325  -13.2484   18.6867 C   0  0  0  0  0  0  0  0  0  0  0  0
    5.7003  -13.6994   19.3754 C   0  0  0  0  0  0  0  0  0  0  0  0
    6.7721  -12.6312   19.4465 C   0  0  0  0  0  0  0  0  0  0  0  0
    5.8105  -11.6770   20.0592 C   0  0  0  0  0  0  0  0  0  0  0  0
   -1.0323  -16.0533   19.7116 H   0  0  0  0  0  0  0  0  0  0  0  0
   -2.1958  -14.8641   20.1451 H   0  0  0  0  0  0  0  0  0  0  0  0
   -4.3660  -16.5041   17.3877 H   0  0  0  0  0  0  0  0  0  0  0  0
   -5.8678  -18.4286   18.5271 H   0  0  0  0  0  0  0  0  0  0  0  0
   -5.6172  -18.7119   21.5914 H   0  0  0  0  0  0  0  0  0  0  0  0
   -6.6984  -20.2016   20.0935 H   0  0  0  0  0  0  0  0  0  0  0  0
   -5.1759  -20.7398   19.3641 H   0  0  0  0  0  0  0  0  0  0  0  0
   -6.2753  -21.4870   22.0993 H   0  0  0  0  0  0  0  0  0  0  0  0
   -5.7452  -22.5808   20.8075 H   0  0  0  0  0  0  0  0  0  0  0  0
   -3.4342  -21.8881   21.0517 H   0  0  0  0  0  0  0  0  0  0  0  0
   -3.9784  -22.0350   22.7316 H   0  0  0  0  0  0  0  0  0  0  0  0
   -4.1800  -19.7061   22.9860 H   0  0  0  0  0  0  0  0  0  0  0  0
   -2.8778  -19.7300   21.8034 H   0  0  0  0  0  0  0  0  0  0  0  0
    1.3268  -14.6531   16.8667 H   0  0  0  0  0  0  0  0  0  0  0  0
    1.1048  -13.3962   16.6196 H   0  0  0  0  0  0  0  0  0  0  0  0
    3.0961  -13.0251   21.6815 H   0  0  0  0  0  0  0  0  0  0  0  0
    5.5524  -13.7359   20.4453 H   0  0  0  0  0  0  0  0  0  0  0  0
    5.7004  -14.7164   19.0656 H   0  0  0  0  0  0  0  0  0  0  0  0
    7.6116  -12.8544   20.1103 H   0  0  0  0  0  0  0  0  0  0  0  0
    7.1991  -12.2414   18.5233 H   0  0  0  0  0  0  0  0  0  0  0  0
    6.0677  -11.2512   21.0173 H   0  0  0  0  0  0  0  0  0  0  0  0
    5.9271  -10.8066   19.3982 H   0  0  0  0  0  0  0  0  0  0  0  0
  1  2  2  0
  2  3  2  0
  2  4  1  0
  4  5  1  0
  5  6  1  0
  6  7  2  0
  7  8  1  0
  8  9  1  0
  9 10  1  0
 10 11  1  0
 11 12  1  0
 12 13  1  0
  8 14  1  0
  2 15  1  0
 15 16  1  0
 16 17  2  0
 17 18  1  0
 18 19  1  0
 19 20  2  0
 20 21  1  0
 21 22  1  0
 22 23  1  0
 14  5  2  0
 20 16  1  0
 13  9  1  0
 23 19  1  0
  4 24  1  0
  4 25  1  0
  6 26  1  0
  7 27  1  0
  9 28  1  0
 10 29  1  0
 10 30  1  0
 11 31  1  0
 11 32  1  0
 12 33  1  0
 12 34  1  0
 13 35  1  0
 13 36  1  0
 15 37  1  0
 15 38  1  0
 18 39  1  0
 21 40  1  0
 21 41  1  0
 22 42  1  0
 22 43  1  0
 23 44  1  0
 23 45  1  0
M  END
>  <Energy>  (824) 
596.37360153868531

>  <compound_id>  (824) 
46485

>  <target_id>  (824) 
1

>  <reference_id>  (824) 
81

>  <inspiration_ids>  (824) 
[96, 81]

>  <energy_score>  (824) 
483.2328873885351

>  <distance_score>  (824) 
14.57738999546498

>  <path>  (824) 
/opt/xchem-fragalysis-2/maxwin/BulkDock/SCRATCH/511023/C46485-P81/C46485-P81.minimised.mol

>  <scratch_subdir>  (824) 
/opt/xchem-fragalysis-2/maxwin/BulkDock/SCRATCH/511023/C46485-P81

>  <fragmenstein_runtime>  (824) 
22.0909481048584

>  <fragmenstein_outcome>  (824) 
too moved

>  <fragmenstein_mode>  (824) 
expansion

>  <fragmenstein_error>  (824) 


$$$$
C18698-P96
     RDKit          3D

 49 51  0  0  0  0  0  0  0  0999 V2000
   -0.7525  -15.2419   19.9705 C   0  0  0  0  0  0  0  0  0  0  0  0
   -1.4224  -13.7104   20.9003 C   0  0  0  0  0  0  0  0  0  0  0  0
   -0.9462  -12.4178   21.9480 C   0  0  0  0  0  0  0  0  0  0  0  0
   -2.0923  -12.3435   23.6065 C   0  0  0  0  0  0  0  0  0  0  0  0
   -3.8547  -11.9572   23.6573 N   0  0  0  0  0  0  0  0  0  0  0  0
   -5.0699  -12.7934   23.2551 C   0  0  0  0  0  0  0  0  0  0  0  0
   -5.1338  -13.9117   22.8169 O   0  0  0  0  0  0  0  0  0  0  0  0
   -6.4703  -12.2139   23.5270 C   0  0  0  0  0  0  0  0  0  0  0  0
   -6.8703  -11.0564   24.2400 C   0  0  0  0  0  0  0  0  0  0  0  0
   -8.2020  -11.2451   24.5399 C   0  0  0  0  0  0  0  0  0  0  0  0
   -8.5564  -12.4270   23.9720 N   0  0  0  0  0  0  0  0  0  0  0  0
   -7.5475  -13.0257   23.3377 N   0  0  0  0  0  0  0  0  0  0  0  0
    0.2533  -10.8947   21.2333 N   0  0  0  0  0  0  0  0  0  0  0  0
    2.0011  -10.7702   21.0992 C   0  0  0  0  0  0  0  0  0  0  0  0
    2.6005  -11.6184   21.5751 O   0  0  0  0  0  0  0  0  0  0  0  0
    3.1811   -9.6213   20.1395 C   0  0  0  0  0  0  0  0  0  0  0  0
    4.1606  -10.3147   18.7907 C   0  0  0  0  0  0  0  0  0  0  0  0
    5.4890   -9.8183   18.8819 C   0  0  0  0  0  0  0  0  0  0  0  0
    5.5498   -9.0143   20.0281 N   0  0  0  0  0  0  0  0  0  0  0  0
    6.7694   -8.4591   20.6024 C   0  0  0  0  0  0  0  0  0  0  0  0
    7.0659   -9.0139   22.0057 C   0  0  0  0  0  0  0  0  0  0  0  0
    7.6128   -7.8324   22.7924 C   0  0  0  0  0  0  0  0  0  0  0  0
    6.8345   -6.6524   22.2403 C   0  0  0  0  0  0  0  0  0  0  0  0
    6.7842   -6.9267   20.7433 C   0  0  0  0  0  0  0  0  0  0  0  0
    4.2787   -8.6502   20.5655 N   0  0  0  0  0  0  0  0  0  0  0  0
   -0.6525  -16.2196   20.4377 H   0  0  0  0  0  0  0  0  0  0  0  0
   -1.5417  -15.4946   19.2265 H   0  0  0  0  0  0  0  0  0  0  0  0
    0.0803  -15.0238   19.3210 H   0  0  0  0  0  0  0  0  0  0  0  0
   -2.3368  -13.6778   20.2200 H   0  0  0  0  0  0  0  0  0  0  0  0
   -1.9504  -13.9500   21.8401 H   0  0  0  0  0  0  0  0  0  0  0  0
   -0.0910  -12.7554   22.5227 H   0  0  0  0  0  0  0  0  0  0  0  0
   -1.7350  -11.5291   24.0669 H   0  0  0  0  0  0  0  0  0  0  0  0
   -2.3538  -13.3273   23.8949 H   0  0  0  0  0  0  0  0  0  0  0  0
   -4.1588  -11.0252   23.9091 H   0  0  0  0  0  0  0  0  0  0  0  0
   -6.2536  -10.2391   24.5821 H   0  0  0  0  0  0  0  0  0  0  0  0
   -8.9105  -10.6486   25.0965 H   0  0  0  0  0  0  0  0  0  0  0  0
   -9.4642  -12.8804   23.9714 H   0  0  0  0  0  0  0  0  0  0  0  0
   -0.1515  -10.0425   20.8480 H   0  0  0  0  0  0  0  0  0  0  0  0
    3.8119  -11.1915   18.2475 H   0  0  0  0  0  0  0  0  0  0  0  0
    6.3902  -10.0268   18.3352 H   0  0  0  0  0  0  0  0  0  0  0  0
    7.5832   -8.7480   19.9246 H   0  0  0  0  0  0  0  0  0  0  0  0
    7.7867   -9.8376   21.9718 H   0  0  0  0  0  0  0  0  0  0  0  0
    6.1620   -9.3947   22.4940 H   0  0  0  0  0  0  0  0  0  0  0  0
    7.4776   -7.9541   23.8709 H   0  0  0  0  0  0  0  0  0  0  0  0
    8.6837   -7.7083   22.5926 H   0  0  0  0  0  0  0  0  0  0  0  0
    5.8210   -6.6351   22.6559 H   0  0  0  0  0  0  0  0  0  0  0  0
    7.3121   -5.6953   22.4690 H   0  0  0  0  0  0  0  0  0  0  0  0
    7.7010   -6.5407   20.2809 H   0  0  0  0  0  0  0  0  0  0  0  0
    5.9440   -6.4105   20.2721 H   0  0  0  0  0  0  0  0  0  0  0  0
  1  2  1  0
  2  3  1  0
  3  4  1  0
  4  5  1  0
  5  6  1  0
  6  7  2  0
  6  8  1  0
  8  9  1  0
  9 10  2  0
 10 11  1  0
 11 12  1  0
  3 13  1  0
 13 14  1  0
 14 15  2  0
 14 16  1  0
 16 17  1  0
 17 18  2  0
 18 19  1  0
 19 20  1  0
 20 21  1  0
 21 22  1  0
 22 23  1  0
 23 24  1  0
 19 25  1  0
 12  8  2  0
 25 16  2  0
 24 20  1  0
  1 26  1  0
  1 27  1  0
  1 28  1  0
  2 29  1  0
  2 30  1  0
  3 31  1  0
  4 32  1  0
  4 33  1  0
  5 34  1  0
  9 35  1  0
 10 36  1  0
 11 37  1  0
 13 38  1  0
 17 39  1  0
 18 40  1  0
 20 41  1  0
 21 42  1  0
 21 43  1  0
 22 44  1  0
 22 45  1  0
 23 46  1  0
 23 47  1  0
 24 48  1  0
 24 49  1  0
M  END
>  <Energy>  (825) 
598.77163303642192

>  <compound_id>  (825) 
18698

>  <target_id>  (825) 
1

>  <reference_id>  (825) 
96

>  <inspiration_ids>  (825) 
[96, 81]

>  <energy_score>  (825) 
484.0303655787427

>  <distance_score>  (825) 
12.992587970218272

>  <path>  (825) 
/opt/xchem-fragalysis-2/maxwin/BulkDock/SCRATCH/511023/C18698-P96/C18698-P96.minimised.mol

>  <scratch_subdir>  (825) 
/opt/xchem-fragalysis-2/maxwin/BulkDock/SCRATCH/511023/C18698-P96

>  <fragmenstein_runtime>  (825) 
28.810986518859863

>  <fragmenstein_outcome>  (825) 
too moved

>  <fragmenstein_mode>  (825) 
expansion

>  <fragmenstein_error>  (825) 


$$$$
C18698-P81
     RDKit          3D

 49 51  0  0  0  0  0  0  0  0999 V2000
    3.0280  -12.5103   22.6989 C   0  0  0  0  0  0  0  0  0  0  0  0
    3.2336  -13.5364   21.2242 C   0  0  0  0  0  0  0  0  0  0  0  0
    2.5883  -14.4466   19.6303 C   0  0  0  0  0  0  0  0  0  0  0  0
    1.0920  -15.8703   20.1786 C   0  0  0  0  0  0  0  0  0  0  0  0
    0.4188  -17.4379   20.9304 N   0  0  0  0  0  0  0  0  0  0  0  0
   -0.9497  -17.9236   21.0777 C   0  0  0  0  0  0  0  0  0  0  0  0
   -1.9819  -17.4645   20.6653 O   0  0  0  0  0  0  0  0  0  0  0  0
   -1.2760  -19.5073   22.2515 C   0  0  0  0  0  0  0  0  0  0  0  0
   -0.4696  -20.5551   22.8929 C   0  0  0  0  0  0  0  0  0  0  0  0
   -1.0606  -21.7921   23.1772 C   0  0  0  0  0  0  0  0  0  0  0  0
   -2.3222  -21.5068   22.9298 N   0  0  0  0  0  0  0  0  0  0  0  0
   -2.3448  -20.5048   22.0875 N   0  0  0  0  0  0  0  0  0  0  0  0
    3.7820  -12.9256   18.9235 N   0  0  0  0  0  0  0  0  0  0  0  0
    5.3639  -12.2297   19.5610 C   0  0  0  0  0  0  0  0  0  0  0  0
    5.9900  -12.6872   20.4783 O   0  0  0  0  0  0  0  0  0  0  0  0
    6.1480  -10.5736   19.0131 C   0  0  0  0  0  0  0  0  0  0  0  0
    5.1527   -9.1132   18.3792 C   0  0  0  0  0  0  0  0  0  0  0  0
    5.9053   -7.9316   18.4972 C   0  0  0  0  0  0  0  0  0  0  0  0
    6.7340   -8.5348   17.6372 N   0  0  0  0  0  0  0  0  0  0  0  0
    6.2623   -8.1823   16.2027 C   0  0  0  0  0  0  0  0  0  0  0  0
    5.4312   -6.9623   15.8051 C   0  0  0  0  0  0  0  0  0  0  0  0
    4.8932   -7.4675   14.4311 C   0  0  0  0  0  0  0  0  0  0  0  0
    5.9828   -8.4002   13.8454 C   0  0  0  0  0  0  0  0  0  0  0  0
    7.0551   -8.5605   14.9413 C   0  0  0  0  0  0  0  0  0  0  0  0
    7.2815   -9.9259   18.3638 N   0  0  0  0  0  0  0  0  0  0  0  0
    3.7355  -11.6977   22.5701 H   0  0  0  0  0  0  0  0  0  0  0  0
    2.1091  -12.0155   22.9850 H   0  0  0  0  0  0  0  0  0  0  0  0
    3.1976  -13.1438   23.5765 H   0  0  0  0  0  0  0  0  0  0  0  0
    4.0307  -12.9409   20.8930 H   0  0  0  0  0  0  0  0  0  0  0  0
    3.2600  -14.4098   21.8856 H   0  0  0  0  0  0  0  0  0  0  0  0
    2.9610  -14.8982   18.6730 H   0  0  0  0  0  0  0  0  0  0  0  0
    0.7631  -15.4522   21.1019 H   0  0  0  0  0  0  0  0  0  0  0  0
    0.2638  -15.9435   19.5682 H   0  0  0  0  0  0  0  0  0  0  0  0
    1.0565  -18.1239   21.3331 H   0  0  0  0  0  0  0  0  0  0  0  0
    0.5258  -20.2124   23.0207 H   0  0  0  0  0  0  0  0  0  0  0  0
   -0.7288  -22.7002   23.6502 H   0  0  0  0  0  0  0  0  0  0  0  0
   -3.1588  -22.0662   23.0637 H   0  0  0  0  0  0  0  0  0  0  0  0
    3.4960  -12.4091   18.0914 H   0  0  0  0  0  0  0  0  0  0  0  0
    4.0794   -9.1007   18.1868 H   0  0  0  0  0  0  0  0  0  0  0  0
    5.6266   -6.8880   18.4338 H   0  0  0  0  0  0  0  0  0  0  0  0
    5.3160   -8.7491   16.1693 H   0  0  0  0  0  0  0  0  0  0  0  0
    4.5831   -6.7412   16.4626 H   0  0  0  0  0  0  0  0  0  0  0  0
    6.0609   -6.0896   15.7916 H   0  0  0  0  0  0  0  0  0  0  0  0
    3.9878   -8.0670   14.6059 H   0  0  0  0  0  0  0  0  0  0  0  0
    4.5681   -6.6899   13.7394 H   0  0  0  0  0  0  0  0  0  0  0  0
    6.4071   -8.0181   12.9122 H   0  0  0  0  0  0  0  0  0  0  0  0
    5.5353   -9.3738   13.6118 H   0  0  0  0  0  0  0  0  0  0  0  0
    7.9013   -7.8896   14.7968 H   0  0  0  0  0  0  0  0  0  0  0  0
    7.4834   -9.5656   14.9223 H   0  0  0  0  0  0  0  0  0  0  0  0
  1  2  1  0
  2  3  1  0
  3  4  1  0
  4  5  1  0
  5  6  1  0
  6  7  2  0
  6  8  1  0
  8  9  1  0
  9 10  2  0
 10 11  1  0
 11 12  1  0
  3 13  1  0
 13 14  1  0
 14 15  2  0
 14 16  1  0
 16 17  1  0
 17 18  2  0
 18 19  1  0
 19 20  1  0
 20 21  1  0
 21 22  1  0
 22 23  1  0
 23 24  1  0
 19 25  1  0
 12  8  2  0
 25 16  2  0
 24 20  1  0
  1 26  1  0
  1 27  1  0
  1 28  1  0
  2 29  1  0
  2 30  1  0
  3 31  1  0
  4 32  1  0
  4 33  1  0
  5 34  1  0
  9 35  1  0
 10 36  1  0
 11 37  1  0
 13 38  1  0
 17 39  1  0
 18 40  1  0
 20 41  1  0
 21 42  1  0
 21 43  1  0
 22 44  1  0
 22 45  1  0
 23 46  1  0
 23 47  1  0
 24 48  1  0
 24 49  1  0
M  END
>  <Energy>  (826) 
1070.9342878649097

>  <compound_id>  (826) 
18698

>  <target_id>  (826) 
1

>  <reference_id>  (826) 
81

>  <inspiration_ids>  (826) 
[96, 81]

>  <energy_score>  (826) 
956.1930204072419

>  <distance_score>  (826) 
11.282117826609424

>  <path>  (826) 
/opt/xchem-fragalysis-2/maxwin/BulkDock/SCRATCH/511023/C18698-P81/C18698-P81.minimised.mol

>  <scratch_subdir>  (826) 
/opt/xchem-fragalysis-2/maxwin/BulkDock/SCRATCH/511023/C18698-P81

>  <fragmenstein_runtime>  (826) 
72.5498058795929

>  <fragmenstein_outcome>  (826) 
too moved

>  <fragmenstein_mode>  (826) 
expansion

>  <fragmenstein_error>  (826) 


$$$$
C28366-P96
     RDKit          3D

 49 51  0  0  0  0  0  0  0  0999 V2000
    0.7636  -14.4413   29.7719 C   0  0  0  0  0  0  0  0  0  0  0  0
    0.1419  -15.3567   28.7436 C   0  0  0  0  0  0  0  0  0  0  0  0
    0.2909  -15.0496   27.1564 C   0  0  0  0  0  0  0  0  0  0  0  0
    1.5562  -13.5002   26.4069 C   0  0  0  0  0  0  0  0  0  0  0  0
    3.2862  -12.7156   25.6094 N   0  0  0  0  0  0  0  0  0  0  0  0
    4.0180  -10.9271   25.5874 C   0  0  0  0  0  0  0  0  0  0  0  0
    3.5355   -9.9477   26.1779 O   0  0  0  0  0  0  0  0  0  0  0  0
    5.3942  -10.3711   24.6143 C   0  0  0  0  0  0  0  0  0  0  0  0
    5.8563  -10.0230   23.3035 C   0  0  0  0  0  0  0  0  0  0  0  0
    6.9726   -9.2848   23.1963 N   0  0  0  0  0  0  0  0  0  0  0  0
    7.0597   -8.7685   24.4067 N   0  0  0  0  0  0  0  0  0  0  0  0
    6.0517   -9.2275   25.1957 C   0  0  0  0  0  0  0  0  0  0  0  0
   -1.0440  -16.3358   26.4797 N   0  0  0  0  0  0  0  0  0  0  0  0
   -2.3004  -17.3766   27.3538 C   0  0  0  0  0  0  0  0  0  0  0  0
   -2.3379  -17.3982   28.5511 O   0  0  0  0  0  0  0  0  0  0  0  0
   -3.5728  -18.6530   26.6467 C   0  0  0  0  0  0  0  0  0  0  0  0
   -3.3974  -20.1334   26.8107 C   0  0  0  0  0  0  0  0  0  0  0  0
   -4.5768  -20.9548   26.8512 C   0  0  0  0  0  0  0  0  0  0  0  0
   -5.8415  -20.2950   27.1308 N   0  0  0  0  0  0  0  0  0  0  0  0
   -7.4382  -21.0220   27.8497 C   0  0  0  0  0  0  0  0  0  0  0  0
   -9.3102  -20.5353   28.2918 C   0  0  0  0  0  0  0  0  0  0  0  0
  -10.4495  -21.5514   28.2107 C   0  0  0  0  0  0  0  0  0  0  0  0
   -9.8381  -22.6261   28.9972 C   0  0  0  0  0  0  0  0  0  0  0  0
   -8.3930  -22.5662   28.4727 C   0  0  0  0  0  0  0  0  0  0  0  0
   -5.1699  -18.7973   26.5295 N   0  0  0  0  0  0  0  0  0  0  0  0
    0.2519  -13.4795   29.7756 H   0  0  0  0  0  0  0  0  0  0  0  0
    0.6229  -14.8675   30.7719 H   0  0  0  0  0  0  0  0  0  0  0  0
    1.8323  -14.3049   29.6346 H   0  0  0  0  0  0  0  0  0  0  0  0
    0.3699  -16.4053   28.9624 H   0  0  0  0  0  0  0  0  0  0  0  0
   -0.9367  -15.3274   28.9707 H   0  0  0  0  0  0  0  0  0  0  0  0
   -0.5429  -14.3293   27.3506 H   0  0  0  0  0  0  0  0  0  0  0  0
    0.9291  -12.9173   25.7637 H   0  0  0  0  0  0  0  0  0  0  0  0
    1.3853  -13.1047   27.3396 H   0  0  0  0  0  0  0  0  0  0  0  0
    3.8064  -13.2965   24.9961 H   0  0  0  0  0  0  0  0  0  0  0  0
    5.3954  -10.1030   22.3575 H   0  0  0  0  0  0  0  0  0  0  0  0
    7.7564   -8.0545   24.5981 H   0  0  0  0  0  0  0  0  0  0  0  0
    5.8760   -8.7549   26.1565 H   0  0  0  0  0  0  0  0  0  0  0  0
   -1.2207  -16.3804   25.4912 H   0  0  0  0  0  0  0  0  0  0  0  0
   -2.4082  -20.5722   26.8609 H   0  0  0  0  0  0  0  0  0  0  0  0
   -4.6143  -21.9994   26.7191 H   0  0  0  0  0  0  0  0  0  0  0  0
   -7.3005  -21.5572   26.9045 H   0  0  0  0  0  0  0  0  0  0  0  0
   -9.5851  -20.0557   29.2489 H   0  0  0  0  0  0  0  0  0  0  0  0
   -9.4487  -19.7700   27.5951 H   0  0  0  0  0  0  0  0  0  0  0  0
  -11.3661  -21.1764   28.6764 H   0  0  0  0  0  0  0  0  0  0  0  0
  -10.7111  -21.8851   27.2061 H   0  0  0  0  0  0  0  0  0  0  0  0
  -10.3000  -23.5979   28.7828 H   0  0  0  0  0  0  0  0  0  0  0  0
   -9.9392  -22.4893   30.0780 H   0  0  0  0  0  0  0  0  0  0  0  0
   -8.6619  -23.0641   27.5204 H   0  0  0  0  0  0  0  0  0  0  0  0
   -7.8748  -23.2075   29.2015 H   0  0  0  0  0  0  0  0  0  0  0  0
  1  2  1  0
  2  3  1  0
  3  4  1  0
  4  5  1  0
  5  6  1  0
  6  7  2  0
  6  8  1  0
  8  9  1  0
  9 10  2  0
 10 11  1  0
 11 12  1  0
  3 13  1  0
 13 14  1  0
 14 15  2  0
 14 16  1  0
 16 17  1  0
 17 18  2  0
 18 19  1  0
 19 20  1  0
 20 21  1  0
 21 22  1  0
 22 23  1  0
 23 24  1  0
 19 25  1  0
 12  8  2  0
 25 16  2  0
 24 20  1  0
  1 26  1  0
  1 27  1  0
  1 28  1  0
  2 29  1  0
  2 30  1  0
  3 31  1  0
  4 32  1  0
  4 33  1  0
  5 34  1  0
  9 35  1  0
 11 36  1  0
 12 37  1  0
 13 38  1  0
 17 39  1  0
 18 40  1  0
 20 41  1  0
 21 42  1  0
 21 43  1  0
 22 44  1  0
 22 45  1  0
 23 46  1  0
 23 47  1  0
 24 48  1  0
 24 49  1  0
M  END
>  <Energy>  (827) 
1116.5086929261461

>  <compound_id>  (827) 
28366

>  <target_id>  (827) 
1

>  <reference_id>  (827) 
96

>  <inspiration_ids>  (827) 
[96, 81]

>  <energy_score>  (827) 
1044.994224946317

>  <distance_score>  (827) 
10.515341477551626

>  <path>  (827) 
/opt/xchem-fragalysis-2/maxwin/BulkDock/SCRATCH/511023/C28366-P96/C28366-P96.minimised.mol

>  <scratch_subdir>  (827) 
/opt/xchem-fragalysis-2/maxwin/BulkDock/SCRATCH/511023/C28366-P96

>  <fragmenstein_runtime>  (827) 
49.383453130722046

>  <fragmenstein_outcome>  (827) 
too moved

>  <fragmenstein_mode>  (827) 
expansion

>  <fragmenstein_error>  (827) 


$$$$
C28366-P81
     RDKit          3D

 49 51  0  0  0  0  0  0  0  0999 V2000
    1.7562  -12.6360   23.8788 C   0  0  0  0  0  0  0  0  0  0  0  0
   -0.0641  -12.6933   22.8302 C   0  0  0  0  0  0  0  0  0  0  0  0
   -0.7824  -14.4664   23.4852 C   0  0  0  0  0  0  0  0  0  0  0  0
    0.6799  -14.8517   21.8607 C   0  0  0  0  0  0  0  0  0  0  0  0
    2.4347  -14.0838   20.6019 N   0  0  0  0  0  0  0  0  0  0  0  0
    3.8259  -12.5011   20.8538 C   0  0  0  0  0  0  0  0  0  0  0  0
    3.6611  -12.0217   21.9566 O   0  0  0  0  0  0  0  0  0  0  0  0
    5.2993  -11.2278   19.8013 C   0  0  0  0  0  0  0  0  0  0  0  0
    5.0698   -9.6723   18.3834 C   0  0  0  0  0  0  0  0  0  0  0  0
    4.9890   -7.9313   18.2191 N   0  0  0  0  0  0  0  0  0  0  0  0
    5.5090   -7.8032   19.3175 N   0  0  0  0  0  0  0  0  0  0  0  0
    4.8361   -9.4274   19.0010 C   0  0  0  0  0  0  0  0  0  0  0  0
   -2.5168  -14.9265   24.7076 N   0  0  0  0  0  0  0  0  0  0  0  0
   -3.2615  -16.6221   25.4839 C   0  0  0  0  0  0  0  0  0  0  0  0
   -2.5388  -17.5578   25.2813 O   0  0  0  0  0  0  0  0  0  0  0  0
   -4.9263  -17.2792   26.5383 C   0  0  0  0  0  0  0  0  0  0  0  0
   -4.9608  -19.0493   26.5758 C   0  0  0  0  0  0  0  0  0  0  0  0
   -6.4145  -19.7865   26.8139 C   0  0  0  0  0  0  0  0  0  0  0  0
   -7.7707  -18.8135   27.7108 N   0  0  0  0  0  0  0  0  0  0  0  0
   -9.2189  -19.7397   28.0874 C   0  0  0  0  0  0  0  0  0  0  0  0
  -10.3712  -20.8524   29.4008 C   0  0  0  0  0  0  0  0  0  0  0  0
  -11.0758  -22.3450   29.2172 C   0  0  0  0  0  0  0  0  0  0  0  0
  -10.3778  -22.7973   27.9955 C   0  0  0  0  0  0  0  0  0  0  0  0
  -10.2447  -21.3774   27.4455 C   0  0  0  0  0  0  0  0  0  0  0  0
   -6.4544  -17.3308   27.5845 N   0  0  0  0  0  0  0  0  0  0  0  0
    2.2778  -11.7507   23.6373 H   0  0  0  0  0  0  0  0  0  0  0  0
    2.5350  -13.3494   23.5407 H   0  0  0  0  0  0  0  0  0  0  0  0
    1.6697  -12.8215   24.9536 H   0  0  0  0  0  0  0  0  0  0  0  0
    0.6763  -11.8196   22.6027 H   0  0  0  0  0  0  0  0  0  0  0  0
   -0.6157  -11.8310   22.3493 H   0  0  0  0  0  0  0  0  0  0  0  0
   -0.1125  -14.3522   24.2935 H   0  0  0  0  0  0  0  0  0  0  0  0
    0.3456  -15.8387   21.3562 H   0  0  0  0  0  0  0  0  0  0  0  0
   -0.1898  -14.1755   21.8161 H   0  0  0  0  0  0  0  0  0  0  0  0
    2.6364  -14.5350   19.7133 H   0  0  0  0  0  0  0  0  0  0  0  0
    4.0380   -9.9509   17.4710 H   0  0  0  0  0  0  0  0  0  0  0  0
    6.5186   -7.7201   19.4255 H   0  0  0  0  0  0  0  0  0  0  0  0
    3.4754   -9.0748   18.7538 H   0  0  0  0  0  0  0  0  0  0  0  0
   -3.1291  -14.1600   24.9865 H   0  0  0  0  0  0  0  0  0  0  0  0
   -4.1281  -19.5919   26.1371 H   0  0  0  0  0  0  0  0  0  0  0  0
   -6.6964  -20.7357   27.2763 H   0  0  0  0  0  0  0  0  0  0  0  0
   -9.5677  -18.6839   27.9044 H   0  0  0  0  0  0  0  0  0  0  0  0
  -10.2152  -20.8363   30.4853 H   0  0  0  0  0  0  0  0  0  0  0  0
  -11.4156  -20.5427   29.2392 H   0  0  0  0  0  0  0  0  0  0  0  0
  -11.0632  -22.9893   30.1082 H   0  0  0  0  0  0  0  0  0  0  0  0
  -12.1627  -22.2602   29.0491 H   0  0  0  0  0  0  0  0  0  0  0  0
  -11.0419  -23.4172   27.3799 H   0  0  0  0  0  0  0  0  0  0  0  0
   -9.4428  -23.3475   28.0372 H   0  0  0  0  0  0  0  0  0  0  0  0
  -11.3931  -21.3186   27.5150 H   0  0  0  0  0  0  0  0  0  0  0  0
  -10.6071  -21.2358   26.4287 H   0  0  0  0  0  0  0  0  0  0  0  0
  1  2  1  0
  2  3  1  0
  3  4  1  0
  4  5  1  0
  5  6  1  0
  6  7  2  0
  6  8  1  0
  8  9  1  0
  9 10  2  0
 10 11  1  0
 11 12  1  0
  3 13  1  0
 13 14  1  0
 14 15  2  0
 14 16  1  0
 16 17  1  0
 17 18  2  0
 18 19  1  0
 19 20  1  0
 20 21  1  0
 21 22  1  0
 22 23  1  0
 23 24  1  0
 19 25  1  0
 12  8  2  0
 25 16  2  0
 24 20  1  0
  1 26  1  0
  1 27  1  0
  1 28  1  0
  2 29  1  0
  2 30  1  0
  3 31  1  0
  4 32  1  0
  4 33  1  0
  5 34  1  0
  9 35  1  0
 11 36  1  0
 12 37  1  0
 13 38  1  0
 17 39  1  0
 18 40  1  0
 20 41  1  0
 21 42  1  0
 21 43  1  0
 22 44  1  0
 22 45  1  0
 23 46  1  0
 23 47  1  0
 24 48  1  0
 24 49  1  0
M  END
>  <Energy>  (828) 
3420.2607228174043

>  <compound_id>  (828) 
28366

>  <target_id>  (828) 
1

>  <reference_id>  (828) 
81

>  <inspiration_ids>  (828) 
[96, 81]

>  <energy_score>  (828) 
3348.746254837516

>  <distance_score>  (828) 
9.287572259829581

>  <path>  (828) 
/opt/xchem-fragalysis-2/maxwin/BulkDock/SCRATCH/511023/C28366-P81/C28366-P81.minimised.mol

>  <scratch_subdir>  (828) 
/opt/xchem-fragalysis-2/maxwin/BulkDock/SCRATCH/511023/C28366-P81

>  <fragmenstein_runtime>  (828) 
49.222073793411255

>  <fragmenstein_outcome>  (828) 
too moved

>  <fragmenstein_mode>  (828) 
expansion

>  <fragmenstein_error>  (828) 


$$$$
C46486-P96
     RDKit          3D

 44 47  0  0  0  0  0  0  0  0999 V2000
    8.8580  -20.4594   20.0023 O   0  0  0  0  0  0  0  0  0  0  0  0
    7.9931  -19.9565   18.6678 S   0  0  0  0  0  0  0  0  0  0  0  0
    6.1636  -20.5709   18.9125 C   0  0  0  0  0  0  0  0  0  0  0  0
    5.7439  -21.7970   19.7207 C   0  0  0  0  0  0  0  0  0  0  0  0
    6.0867  -22.2220   21.0304 C   0  0  0  0  0  0  0  0  0  0  0  0
    5.2310  -23.2605   21.3392 C   0  0  0  0  0  0  0  0  0  0  0  0
    4.4719  -23.4657   20.2261 N   0  0  0  0  0  0  0  0  0  0  0  0
    3.5127  -24.5266   19.9506 C   0  0  0  0  0  0  0  0  0  0  0  0
    2.0801  -24.1583   20.3343 C   0  0  0  0  0  0  0  0  0  0  0  0
    1.9860  -24.5316   21.8064 C   0  0  0  0  0  0  0  0  0  0  0  0
    2.8597  -25.7734   21.9582 C   0  0  0  0  0  0  0  0  0  0  0  0
    3.7515  -25.8350   20.7149 C   0  0  0  0  0  0  0  0  0  0  0  0
    4.7231  -22.5546   19.2556 N   0  0  0  0  0  0  0  0  0  0  0  0
    7.8534  -18.0173   18.8331 C   0  0  0  0  0  0  0  0  0  0  0  0
    8.5834  -17.0561   17.8921 C   0  0  0  0  0  0  0  0  0  0  0  0
    7.9819  -16.5278   16.7917 N   0  0  0  0  0  0  0  0  0  0  0  0
    8.7745  -15.4859   16.3997 N   0  0  0  0  0  0  0  0  0  0  0  0
    9.8454  -15.3522   17.2014 C   0  0  0  0  0  0  0  0  0  0  0  0
    9.7689  -16.3319   18.1469 C   0  0  0  0  0  0  0  0  0  0  0  0
   10.8598  -16.2187   19.1308 C   0  0  0  0  0  0  0  0  0  0  0  0
   11.8169  -15.1869   18.4274 C   0  0  0  0  0  0  0  0  0  0  0  0
   10.9832  -14.4363   17.3276 C   0  0  0  0  0  0  0  0  0  0  0  0
    5.8745  -20.7846   17.8768 H   0  0  0  0  0  0  0  0  0  0  0  0
    5.6162  -19.7118   19.2643 H   0  0  0  0  0  0  0  0  0  0  0  0
    6.8307  -21.7897   21.6864 H   0  0  0  0  0  0  0  0  0  0  0  0
    5.1359  -23.8569   22.2341 H   0  0  0  0  0  0  0  0  0  0  0  0
    3.5843  -24.7174   18.8722 H   0  0  0  0  0  0  0  0  0  0  0  0
    1.8266  -23.1102   20.1544 H   0  0  0  0  0  0  0  0  0  0  0  0
    1.3764  -24.7738   19.7598 H   0  0  0  0  0  0  0  0  0  0  0  0
    0.9537  -24.7136   22.1199 H   0  0  0  0  0  0  0  0  0  0  0  0
    2.3816  -23.7222   22.4298 H   0  0  0  0  0  0  0  0  0  0  0  0
    2.2437  -26.6772   22.0242 H   0  0  0  0  0  0  0  0  0  0  0  0
    3.4546  -25.7189   22.8760 H   0  0  0  0  0  0  0  0  0  0  0  0
    3.4248  -26.6794   20.0945 H   0  0  0  0  0  0  0  0  0  0  0  0
    4.8010  -26.0153   20.9685 H   0  0  0  0  0  0  0  0  0  0  0  0
    6.7972  -17.7740   18.8340 H   0  0  0  0  0  0  0  0  0  0  0  0
    8.2389  -17.8356   19.8421 H   0  0  0  0  0  0  0  0  0  0  0  0
    8.4954  -14.9392   15.5912 H   0  0  0  0  0  0  0  0  0  0  0  0
   11.3698  -17.1680   19.3145 H   0  0  0  0  0  0  0  0  0  0  0  0
   10.4907  -15.8113   20.0775 H   0  0  0  0  0  0  0  0  0  0  0  0
   12.6329  -15.7367   17.9398 H   0  0  0  0  0  0  0  0  0  0  0  0
   12.2716  -14.4946   19.1432 H   0  0  0  0  0  0  0  0  0  0  0  0
   10.6644  -13.4550   17.6918 H   0  0  0  0  0  0  0  0  0  0  0  0
   11.5561  -14.3226   16.4041 H   0  0  0  0  0  0  0  0  0  0  0  0
  1  2  1  0
  2  3  1  0
  3  4  1  0
  4  5  1  0
  5  6  2  0
  6  7  1  0
  7  8  1  0
  8  9  1  0
  9 10  1  0
 10 11  1  0
 11 12  1  0
  7 13  1  0
  2 14  1  0
 14 15  1  0
 15 16  2  0
 16 17  1  0
 17 18  1  0
 18 19  2  0
 19 20  1  0
 20 21  1  0
 21 22  1  0
 13  4  2  0
 19 15  1  0
 12  8  1  0
 22 18  1  0
  3 23  1  0
  3 24  1  0
  5 25  1  0
  6 26  1  0
  8 27  1  0
  9 28  1  0
  9 29  1  0
 10 30  1  0
 10 31  1  0
 11 32  1  0
 11 33  1  0
 12 34  1  0
 12 35  1  0
 14 36  1  0
 14 37  1  0
 17 38  1  0
 20 39  1  0
 20 40  1  0
 21 41  1  0
 21 42  1  0
 22 43  1  0
 22 44  1  0
M  CHG  2   1  -1   2   1
M  END
>  <Energy>  (829) 
100.95934213932256

>  <compound_id>  (829) 
46486

>  <target_id>  (829) 
1

>  <reference_id>  (829) 
96

>  <inspiration_ids>  (829) 
[96, 81]

>  <energy_score>  (829) 
1.800804341838159

>  <distance_score>  (829) 
16.85630830991559

>  <path>  (829) 
/opt/xchem-fragalysis-2/maxwin/BulkDock/SCRATCH/511023/C46486-P96/C46486-P96.minimised.mol

>  <scratch_subdir>  (829) 
/opt/xchem-fragalysis-2/maxwin/BulkDock/SCRATCH/511023/C46486-P96

>  <fragmenstein_runtime>  (829) 
25.71566081047058

>  <fragmenstein_outcome>  (829) 
too moved

>  <fragmenstein_mode>  (829) 
expansion

>  <fragmenstein_error>  (829) 


$$$$
C46486-P81
     RDKit          3D

 44 47  0  0  0  0  0  0  0  0999 V2000
   -7.2141  -13.1272   25.8017 O   0  0  0  0  0  0  0  0  0  0  0  0
   -5.9093  -13.8566   26.5385 S   0  0  0  0  0  0  0  0  0  0  0  0
   -6.0370  -15.7540   26.1454 C   0  0  0  0  0  0  0  0  0  0  0  0
   -7.3637  -16.4548   26.5449 C   0  0  0  0  0  0  0  0  0  0  0  0
   -8.6540  -16.0773   26.1869 C   0  0  0  0  0  0  0  0  0  0  0  0
   -9.4674  -17.0186   26.7595 C   0  0  0  0  0  0  0  0  0  0  0  0
   -8.7667  -18.0423   27.4216 N   0  0  0  0  0  0  0  0  0  0  0  0
   -9.1764  -19.5649   28.1246 C   0  0  0  0  0  0  0  0  0  0  0  0
   -9.8135  -21.3279   27.6558 C   0  0  0  0  0  0  0  0  0  0  0  0
  -11.1026  -22.1779   27.9966 C   0  0  0  0  0  0  0  0  0  0  0  0
  -11.6753  -21.3942   29.0760 C   0  0  0  0  0  0  0  0  0  0  0  0
  -10.4092  -20.6169   29.4248 C   0  0  0  0  0  0  0  0  0  0  0  0
   -7.4163  -17.6376   27.1939 N   0  0  0  0  0  0  0  0  0  0  0  0
   -4.3379  -13.3262   25.5307 C   0  0  0  0  0  0  0  0  0  0  0  0
   -3.8610  -11.8679   25.7262 C   0  0  0  0  0  0  0  0  0  0  0  0
   -4.2170  -10.8540   24.8862 N   0  0  0  0  0  0  0  0  0  0  0  0
   -3.5743   -9.7406   25.3408 N   0  0  0  0  0  0  0  0  0  0  0  0
   -2.7303  -10.0440   26.3439 C   0  0  0  0  0  0  0  0  0  0  0  0
   -2.8823  -11.3744   26.6166 C   0  0  0  0  0  0  0  0  0  0  0  0
   -2.0117  -11.8025   27.7260 C   0  0  0  0  0  0  0  0  0  0  0  0
   -1.0869  -10.5431   27.9132 C   0  0  0  0  0  0  0  0  0  0  0  0
   -1.7898   -9.3264   27.2102 C   0  0  0  0  0  0  0  0  0  0  0  0
   -5.8989  -15.8332   25.0625 H   0  0  0  0  0  0  0  0  0  0  0  0
   -5.1881  -16.2091   26.6644 H   0  0  0  0  0  0  0  0  0  0  0  0
   -8.9646  -15.1785   25.6711 H   0  0  0  0  0  0  0  0  0  0  0  0
  -10.4988  -16.9489   26.9360 H   0  0  0  0  0  0  0  0  0  0  0  0
   -8.1895  -19.4425   28.4935 H   0  0  0  0  0  0  0  0  0  0  0  0
  -10.2902  -21.1004   26.7113 H   0  0  0  0  0  0  0  0  0  0  0  0
   -8.9926  -22.0746   27.8387 H   0  0  0  0  0  0  0  0  0  0  0  0
  -11.7603  -22.2841   27.1340 H   0  0  0  0  0  0  0  0  0  0  0  0
  -10.8316  -23.1973   28.2944 H   0  0  0  0  0  0  0  0  0  0  0  0
  -12.0326  -22.0288   29.8950 H   0  0  0  0  0  0  0  0  0  0  0  0
  -12.4564  -20.7205   28.8002 H   0  0  0  0  0  0  0  0  0  0  0  0
  -10.4122  -20.5307   30.5374 H   0  0  0  0  0  0  0  0  0  0  0  0
   -9.9435  -21.4706   29.6958 H   0  0  0  0  0  0  0  0  0  0  0  0
   -3.5548  -14.0237   25.8431 H   0  0  0  0  0  0  0  0  0  0  0  0
   -4.6175  -13.5085   24.4896 H   0  0  0  0  0  0  0  0  0  0  0  0
   -3.7855   -8.8468   24.9066 H   0  0  0  0  0  0  0  0  0  0  0  0
   -1.4219  -12.6916   27.4872 H   0  0  0  0  0  0  0  0  0  0  0  0
   -2.5969  -11.9831   28.6331 H   0  0  0  0  0  0  0  0  0  0  0  0
   -0.8748  -10.3423   28.9681 H   0  0  0  0  0  0  0  0  0  0  0  0
   -0.1259  -10.7334   27.4169 H   0  0  0  0  0  0  0  0  0  0  0  0
   -2.3166   -8.7107   27.9453 H   0  0  0  0  0  0  0  0  0  0  0  0
   -1.0690   -8.7156   26.6610 H   0  0  0  0  0  0  0  0  0  0  0  0
  1  2  1  0
  2  3  1  0
  3  4  1  0
  4  5  1  0
  5  6  2  0
  6  7  1  0
  7  8  1  0
  8  9  1  0
  9 10  1  0
 10 11  1  0
 11 12  1  0
  7 13  1  0
  2 14  1  0
 14 15  1  0
 15 16  2  0
 16 17  1  0
 17 18  1  0
 18 19  2  0
 19 20  1  0
 20 21  1  0
 21 22  1  0
 13  4  2  0
 19 15  1  0
 12  8  1  0
 22 18  1  0
  3 23  1  0
  3 24  1  0
  5 25  1  0
  6 26  1  0
  8 27  1  0
  9 28  1  0
  9 29  1  0
 10 30  1  0
 10 31  1  0
 11 32  1  0
 11 33  1  0
 12 34  1  0
 12 35  1  0
 14 36  1  0
 14 37  1  0
 17 38  1  0
 20 39  1  0
 20 40  1  0
 21 41  1  0
 21 42  1  0
 22 43  1  0
 22 44  1  0
M  CHG  2   1  -1   2   1
M  END
>  <Energy>  (830) 
433.80863840621828

>  <compound_id>  (830) 
46486

>  <target_id>  (830) 
1

>  <reference_id>  (830) 
81

>  <inspiration_ids>  (830) 
[96, 81]

>  <energy_score>  (830) 
334.6501006087215

>  <distance_score>  (830) 
15.094821897972368

>  <path>  (830) 
/opt/xchem-fragalysis-2/maxwin/BulkDock/SCRATCH/511023/C46486-P81/C46486-P81.minimised.mol

>  <scratch_subdir>  (830) 
/opt/xchem-fragalysis-2/maxwin/BulkDock/SCRATCH/511023/C46486-P81

>  <fragmenstein_runtime>  (830) 
23.15945601463318

>  <fragmenstein_outcome>  (830) 
too moved

>  <fragmenstein_mode>  (830) 
expansion

>  <fragmenstein_error>  (830) 


$$$$
C28367-P96
     RDKit          3D

 47 49  0  0  0  0  0  0  0  0999 V2000
    4.8305   -5.9958   17.9042 O   0  0  0  0  0  0  0  0  0  0  0  0
    5.2526   -6.6989   17.0293 C   0  0  0  0  0  0  0  0  0  0  0  0
    5.2061   -8.7620   17.2051 N   0  0  0  0  0  0  0  0  0  0  0  0
    4.3608   -9.9744   18.6831 C   0  0  0  0  0  0  0  0  0  0  0  0
    2.7342  -10.6281   20.0010 C   0  0  0  0  0  0  0  0  0  0  0  0
    2.1958   -9.3831   20.3746 O   0  0  0  0  0  0  0  0  0  0  0  0
    1.7679  -11.6032   21.6529 C   0  0  0  0  0  0  0  0  0  0  0  0
   -0.0588  -12.4300   22.1569 N   0  0  0  0  0  0  0  0  0  0  0  0
   -1.2910  -12.0890   23.6795 C   0  0  0  0  0  0  0  0  0  0  0  0
   -0.9252  -11.3012   24.5911 O   0  0  0  0  0  0  0  0  0  0  0  0
   -2.8180  -12.7505   24.0947 C   0  0  0  0  0  0  0  0  0  0  0  0
   -3.7637  -11.8423   24.7282 C   0  0  0  0  0  0  0  0  0  0  0  0
   -4.7593  -12.5924   25.2980 C   0  0  0  0  0  0  0  0  0  0  0  0
   -4.3008  -13.8635   25.1857 N   0  0  0  0  0  0  0  0  0  0  0  0
   -4.5720  -14.9285   26.1315 C   0  0  0  0  0  0  0  0  0  0  0  0
   -4.3064  -14.5783   27.6028 C   0  0  0  0  0  0  0  0  0  0  0  0
   -5.1236  -15.5972   28.4009 C   0  0  0  0  0  0  0  0  0  0  0  0
   -6.0780  -16.2563   27.4062 C   0  0  0  0  0  0  0  0  0  0  0  0
   -6.0296  -15.3853   26.1624 C   0  0  0  0  0  0  0  0  0  0  0  0
   -3.3675  -13.9925   24.1872 N   0  0  0  0  0  0  0  0  0  0  0  0
    5.8639   -5.8466   15.9890 C   0  0  0  0  0  0  0  0  0  0  0  0
    4.8776   -4.9213   15.4178 C   0  0  0  0  0  0  0  0  0  0  0  0
    5.0788   -3.7301   16.1078 N   0  0  0  0  0  0  0  0  0  0  0  0
    6.0726   -4.0653   17.1111 N   0  0  0  0  0  0  0  0  0  0  0  0
    6.8470   -5.1092   16.6216 C   0  0  0  0  0  0  0  0  0  0  0  0
    5.5232   -9.1831   16.3425 H   0  0  0  0  0  0  0  0  0  0  0  0
    4.8029  -10.9232   18.3621 H   0  0  0  0  0  0  0  0  0  0  0  0
    4.9257   -9.4430   19.4366 H   0  0  0  0  0  0  0  0  0  0  0  0
    3.2004  -10.4237   20.8795 H   0  0  0  0  0  0  0  0  0  0  0  0
    1.4568   -9.5815   20.9926 H   0  0  0  0  0  0  0  0  0  0  0  0
    2.4394  -12.4387   21.8417 H   0  0  0  0  0  0  0  0  0  0  0  0
    1.6548  -10.8303   22.3607 H   0  0  0  0  0  0  0  0  0  0  0  0
   -0.5410  -13.0056   21.4744 H   0  0  0  0  0  0  0  0  0  0  0  0
   -3.6490  -10.7700   24.8086 H   0  0  0  0  0  0  0  0  0  0  0  0
   -5.6027  -12.3159   25.9151 H   0  0  0  0  0  0  0  0  0  0  0  0
   -3.9045  -15.7645   25.8916 H   0  0  0  0  0  0  0  0  0  0  0  0
   -3.2399  -14.6289   27.8469 H   0  0  0  0  0  0  0  0  0  0  0  0
   -4.6469  -13.5670   27.8536 H   0  0  0  0  0  0  0  0  0  0  0  0
   -4.4759  -16.3488   28.8648 H   0  0  0  0  0  0  0  0  0  0  0  0
   -5.6737  -15.0983   29.2059 H   0  0  0  0  0  0  0  0  0  0  0  0
   -7.0915  -16.3539   27.8022 H   0  0  0  0  0  0  0  0  0  0  0  0
   -5.7174  -17.2614   27.1600 H   0  0  0  0  0  0  0  0  0  0  0  0
   -6.7152  -14.5362   26.2740 H   0  0  0  0  0  0  0  0  0  0  0  0
   -6.3321  -15.9347   25.2676 H   0  0  0  0  0  0  0  0  0  0  0  0
    4.0044   -5.0612   14.7911 H   0  0  0  0  0  0  0  0  0  0  0  0
    6.2453   -3.4394   17.8902 H   0  0  0  0  0  0  0  0  0  0  0  0
    7.7280   -5.4502   17.0981 H   0  0  0  0  0  0  0  0  0  0  0  0
  1  2  2  0
  2  3  1  0
  3  4  1  0
  4  5  1  0
  5  6  1  0
  5  7  1  0
  7  8  1  0
  8  9  1  0
  9 10  2  0
  9 11  1  0
 11 12  1  0
 12 13  2  0
 13 14  1  0
 14 15  1  0
 15 16  1  0
 16 17  1  0
 17 18  1  0
 18 19  1  0
 14 20  1  0
  2 21  1  0
 21 22  1  0
 22 23  2  0
 23 24  1  0
 24 25  1  0
 20 11  2  0
 25 21  2  0
 19 15  1  0
  3 26  1  0
  4 27  1  0
  4 28  1  0
  5 29  1  0
  6 30  1  0
  7 31  1  0
  7 32  1  0
  8 33  1  0
 12 34  1  0
 13 35  1  0
 15 36  1  0
 16 37  1  0
 16 38  1  0
 17 39  1  0
 17 40  1  0
 18 41  1  0
 18 42  1  0
 19 43  1  0
 19 44  1  0
 22 45  1  0
 24 46  1  0
 25 47  1  0
M  END
>  <Energy>  (831) 
1063.1805933320661

>  <compound_id>  (831) 
28367

>  <target_id>  (831) 
1

>  <reference_id>  (831) 
96

>  <inspiration_ids>  (831) 
[96, 81]

>  <energy_score>  (831) 
972.5915323885647

>  <distance_score>  (831) 
11.22664258415903

>  <path>  (831) 
/opt/xchem-fragalysis-2/maxwin/BulkDock/SCRATCH/511023/C28367-P96/C28367-P96.minimised.mol

>  <scratch_subdir>  (831) 
/opt/xchem-fragalysis-2/maxwin/BulkDock/SCRATCH/511023/C28367-P96

>  <fragmenstein_runtime>  (831) 
43.95864772796631

>  <fragmenstein_outcome>  (831) 
too moved

>  <fragmenstein_mode>  (831) 
expansion

>  <fragmenstein_error>  (831) 


$$$$
C28367-P81
     RDKit          3D

 47 49  0  0  0  0  0  0  0  0999 V2000
    2.5458   -9.3785   17.7271 O   0  0  0  0  0  0  0  0  0  0  0  0
    2.5468   -8.3637   18.3642 C   0  0  0  0  0  0  0  0  0  0  0  0
    1.1372   -7.9971   19.5866 N   0  0  0  0  0  0  0  0  0  0  0  0
   -0.4015   -9.0498   20.1825 C   0  0  0  0  0  0  0  0  0  0  0  0
   -1.4033  -10.7496   20.7426 C   0  0  0  0  0  0  0  0  0  0  0  0
   -2.3875  -10.0638   21.6379 O   0  0  0  0  0  0  0  0  0  0  0  0
   -2.1793  -12.6498   20.6112 C   0  0  0  0  0  0  0  0  0  0  0  0
   -2.3551  -14.4230   21.6966 N   0  0  0  0  0  0  0  0  0  0  0  0
   -3.3991  -14.8529   23.3939 C   0  0  0  0  0  0  0  0  0  0  0  0
   -4.1516  -14.0143   23.9055 O   0  0  0  0  0  0  0  0  0  0  0  0
   -3.3436  -16.0863   24.3170 C   0  0  0  0  0  0  0  0  0  0  0  0
   -2.7257  -16.0667   25.6276 C   0  0  0  0  0  0  0  0  0  0  0  0
   -3.0275  -17.2667   26.2324 C   0  0  0  0  0  0  0  0  0  0  0  0
   -3.7964  -17.9344   25.3266 N   0  0  0  0  0  0  0  0  0  0  0  0
   -3.8570  -19.3724   25.1242 C   0  0  0  0  0  0  0  0  0  0  0  0
   -2.6158  -20.0619   24.5410 C   0  0  0  0  0  0  0  0  0  0  0  0
   -2.9045  -21.5436   24.7371 C   0  0  0  0  0  0  0  0  0  0  0  0
   -3.5961  -21.6150   26.0872 C   0  0  0  0  0  0  0  0  0  0  0  0
   -4.0559  -20.1893   26.3862 C   0  0  0  0  0  0  0  0  0  0  0  0
   -4.2838  -17.0889   24.3629 N   0  0  0  0  0  0  0  0  0  0  0  0
    4.2886   -7.3300   18.0209 C   0  0  0  0  0  0  0  0  0  0  0  0
    4.7367   -6.3444   16.6101 C   0  0  0  0  0  0  0  0  0  0  0  0
    5.9247   -5.7535   16.5830 N   0  0  0  0  0  0  0  0  0  0  0  0
    6.1946   -5.9397   17.8496 N   0  0  0  0  0  0  0  0  0  0  0  0
    5.0309   -6.1918   18.4997 C   0  0  0  0  0  0  0  0  0  0  0  0
    1.2736   -7.0671   19.9785 H   0  0  0  0  0  0  0  0  0  0  0  0
   -0.5210   -8.5198   21.1345 H   0  0  0  0  0  0  0  0  0  0  0  0
   -1.1171   -8.7011   19.4233 H   0  0  0  0  0  0  0  0  0  0  0  0
   -1.9229  -10.6231   19.7686 H   0  0  0  0  0  0  0  0  0  0  0  0
   -3.2804  -10.4018   21.4158 H   0  0  0  0  0  0  0  0  0  0  0  0
   -1.9837  -12.8274   19.5689 H   0  0  0  0  0  0  0  0  0  0  0  0
   -3.2066  -12.2604   20.5062 H   0  0  0  0  0  0  0  0  0  0  0  0
   -1.8603  -15.2579   21.3841 H   0  0  0  0  0  0  0  0  0  0  0  0
   -2.1054  -15.2746   26.0259 H   0  0  0  0  0  0  0  0  0  0  0  0
   -2.6974  -17.6989   27.1657 H   0  0  0  0  0  0  0  0  0  0  0  0
   -4.6746  -19.5307   24.4209 H   0  0  0  0  0  0  0  0  0  0  0  0
   -1.7160  -19.7916   25.1046 H   0  0  0  0  0  0  0  0  0  0  0  0
   -2.4554  -19.8496   23.4822 H   0  0  0  0  0  0  0  0  0  0  0  0
   -3.5819  -21.9011   23.9523 H   0  0  0  0  0  0  0  0  0  0  0  0
   -1.9968  -22.1530   24.7004 H   0  0  0  0  0  0  0  0  0  0  0  0
   -2.9036  -21.9571   26.8645 H   0  0  0  0  0  0  0  0  0  0  0  0
   -4.4313  -22.3217   26.0664 H   0  0  0  0  0  0  0  0  0  0  0  0
   -5.0997  -20.1533   26.6629 H   0  0  0  0  0  0  0  0  0  0  0  0
   -3.4620  -19.8007   27.2191 H   0  0  0  0  0  0  0  0  0  0  0  0
    4.1277   -6.2317   15.7057 H   0  0  0  0  0  0  0  0  0  0  0  0
    6.9432   -5.3926   18.2155 H   0  0  0  0  0  0  0  0  0  0  0  0
    4.6330   -5.3151   19.0212 H   0  0  0  0  0  0  0  0  0  0  0  0
  1  2  2  0
  2  3  1  0
  3  4  1  0
  4  5  1  0
  5  6  1  0
  5  7  1  0
  7  8  1  0
  8  9  1  0
  9 10  2  0
  9 11  1  0
 11 12  1  0
 12 13  2  0
 13 14  1  0
 14 15  1  0
 15 16  1  0
 16 17  1  0
 17 18  1  0
 18 19  1  0
 14 20  1  0
  2 21  1  0
 21 22  1  0
 22 23  2  0
 23 24  1  0
 24 25  1  0
 20 11  2  0
 25 21  2  0
 19 15  1  0
  3 26  1  0
  4 27  1  0
  4 28  1  0
  5 29  1  0
  6 30  1  0
  7 31  1  0
  7 32  1  0
  8 33  1  0
 12 34  1  0
 13 35  1  0
 15 36  1  0
 16 37  1  0
 16 38  1  0
 17 39  1  0
 17 40  1  0
 18 41  1  0
 18 42  1  0
 19 43  1  0
 19 44  1  0
 22 45  1  0
 24 46  1  0
 25 47  1  0
M  END
>  <Energy>  (832) 
964.12253200088196

>  <compound_id>  (832) 
28367

>  <target_id>  (832) 
1

>  <reference_id>  (832) 
81

>  <inspiration_ids>  (832) 
[96, 81]

>  <energy_score>  (832) 
873.5334710573775

>  <distance_score>  (832) 
9.999122120210913

>  <path>  (832) 
/opt/xchem-fragalysis-2/maxwin/BulkDock/SCRATCH/511023/C28367-P81/C28367-P81.minimised.mol

>  <scratch_subdir>  (832) 
/opt/xchem-fragalysis-2/maxwin/BulkDock/SCRATCH/511023/C28367-P81

>  <fragmenstein_runtime>  (832) 
43.43011498451233

>  <fragmenstein_outcome>  (832) 
too moved

>  <fragmenstein_mode>  (832) 
expansion

>  <fragmenstein_error>  (832) 


$$$$
C18699-P96
     RDKit          3D

 41 43  0  0  0  0  0  0  0  0999 V2000
   -1.7937   -6.3987   14.7297 C   0  0  0  0  0  0  0  0  0  0  0  0
   -0.7758   -6.4378   15.8052 N   0  0  0  0  0  0  0  0  0  0  0  0
   -2.1041   -6.5069   16.7451 C   0  0  0  0  0  0  0  0  0  0  0  0
   -2.9141   -7.8123   17.2087 C   0  0  0  0  0  0  0  0  0  0  0  0
   -3.7124   -8.7450   16.4593 C   0  0  0  0  0  0  0  0  0  0  0  0
   -4.2340   -9.6502   17.3598 C   0  0  0  0  0  0  0  0  0  0  0  0
   -3.7722   -9.2449   18.5666 N   0  0  0  0  0  0  0  0  0  0  0  0
   -3.1045   -8.0731   18.5331 N   0  0  0  0  0  0  0  0  0  0  0  0
    0.2621   -5.2820   15.6038 C   0  0  0  0  0  0  0  0  0  0  0  0
    0.2460   -4.1795   16.0290 O   0  0  0  0  0  0  0  0  0  0  0  0
    1.3269   -6.0061   14.8048 N   0  0  0  0  0  0  0  0  0  0  0  0
    2.6402   -5.6027   14.4248 C   0  0  0  0  0  0  0  0  0  0  0  0
    3.5096   -6.3131   13.5636 C   0  0  0  0  0  0  0  0  0  0  0  0
    4.7989   -5.9592   13.6832 N   0  0  0  0  0  0  0  0  0  0  0  0
    4.8267   -5.0884   14.7277 N   0  0  0  0  0  0  0  0  0  0  0  0
    6.1094   -5.3336   15.8627 C   0  0  0  0  0  0  0  0  0  0  0  0
    6.9781   -6.4295   16.1800 C   0  0  0  0  0  0  0  0  0  0  0  0
    8.4653   -6.0617   17.2293 C   0  0  0  0  0  0  0  0  0  0  0  0
    8.8931   -4.0992   17.0865 C   0  0  0  0  0  0  0  0  0  0  0  0
    7.7515   -4.0919   16.0892 C   0  0  0  0  0  0  0  0  0  0  0  0
    3.5029   -4.6036   14.8995 C   0  0  0  0  0  0  0  0  0  0  0  0
   -2.4051   -7.2985   14.6405 H   0  0  0  0  0  0  0  0  0  0  0  0
   -2.3546   -5.4547   14.6776 H   0  0  0  0  0  0  0  0  0  0  0  0
   -1.2214   -6.3926   13.7905 H   0  0  0  0  0  0  0  0  0  0  0  0
   -2.8016   -5.6678   16.5823 H   0  0  0  0  0  0  0  0  0  0  0  0
   -1.6318   -6.1913   17.6915 H   0  0  0  0  0  0  0  0  0  0  0  0
   -3.8575   -8.7737   15.3902 H   0  0  0  0  0  0  0  0  0  0  0  0
   -4.8422  -10.5337   17.2363 H   0  0  0  0  0  0  0  0  0  0  0  0
   -3.9033   -9.7012   19.4567 H   0  0  0  0  0  0  0  0  0  0  0  0
    0.9790   -6.9179   14.5325 H   0  0  0  0  0  0  0  0  0  0  0  0
    3.2671   -7.1476   12.9171 H   0  0  0  0  0  0  0  0  0  0  0  0
    5.3852   -5.4438   16.6438 H   0  0  0  0  0  0  0  0  0  0  0  0
    6.7869   -6.7940   15.1515 H   0  0  0  0  0  0  0  0  0  0  0  0
    6.9778   -7.5843   16.2821 H   0  0  0  0  0  0  0  0  0  0  0  0
    8.7729   -6.2886   18.2471 H   0  0  0  0  0  0  0  0  0  0  0  0
    9.1532   -6.8072   16.8768 H   0  0  0  0  0  0  0  0  0  0  0  0
    9.6373   -3.4980   16.4951 H   0  0  0  0  0  0  0  0  0  0  0  0
    9.9697   -4.4984   17.3372 H   0  0  0  0  0  0  0  0  0  0  0  0
    7.1963   -3.1844   16.4381 H   0  0  0  0  0  0  0  0  0  0  0  0
    8.3355   -3.9309   15.1824 H   0  0  0  0  0  0  0  0  0  0  0  0
    3.3115   -3.7477   15.5286 H   0  0  0  0  0  0  0  0  0  0  0  0
  1  2  1  0
  2  3  1  0
  3  4  1  0
  4  5  1  0
  5  6  2  0
  6  7  1  0
  7  8  1  0
  2  9  1  0
  9 10  2  0
  9 11  1  0
 11 12  1  0
 12 13  1  0
 13 14  2  0
 14 15  1  0
 15 16  1  0
 16 17  1  0
 17 18  1  0
 18 19  1  0
 19 20  1  0
 15 21  1  0
  8  4  2  0
 21 12  2  0
 20 16  1  0
  1 22  1  0
  1 23  1  0
  1 24  1  0
  3 25  1  0
  3 26  1  0
  5 27  1  0
  6 28  1  0
  7 29  1  0
 11 30  1  0
 13 31  1  0
 16 32  1  0
 17 33  1  0
 17 34  1  0
 18 35  1  0
 18 36  1  0
 19 37  1  0
 19 38  1  0
 20 39  1  0
 20 40  1  0
 21 41  1  0
M  END
>  <Energy>  (833) 
440.90520665614872

>  <compound_id>  (833) 
18699

>  <target_id>  (833) 
1

>  <reference_id>  (833) 
96

>  <inspiration_ids>  (833) 
[96, 81]

>  <energy_score>  (833) 
411.9971851316277

>  <distance_score>  (833) 
16.318543722072842

>  <path>  (833) 
/opt/xchem-fragalysis-2/maxwin/BulkDock/SCRATCH/511023/C18699-P96/C18699-P96.minimised.mol

>  <scratch_subdir>  (833) 
/opt/xchem-fragalysis-2/maxwin/BulkDock/SCRATCH/511023/C18699-P96

>  <fragmenstein_runtime>  (833) 
16.819721937179565

>  <fragmenstein_outcome>  (833) 
too moved

>  <fragmenstein_mode>  (833) 
expansion

>  <fragmenstein_error>  (833) 


$$$$
C18699-P81
     RDKit          3D

 41 43  0  0  0  0  0  0  0  0999 V2000
    3.3546  -14.9059   17.5631 C   0  0  0  0  0  0  0  0  0  0  0  0
    2.6475  -13.8048   18.2246 N   0  0  0  0  0  0  0  0  0  0  0  0
    2.2122  -15.0052   19.1521 C   0  0  0  0  0  0  0  0  0  0  0  0
    0.5810  -16.1902   19.8542 C   0  0  0  0  0  0  0  0  0  0  0  0
    0.1671  -17.6716   20.4866 C   0  0  0  0  0  0  0  0  0  0  0  0
   -1.1337  -18.0915   20.4150 C   0  0  0  0  0  0  0  0  0  0  0  0
   -1.7571  -17.0337   19.9494 N   0  0  0  0  0  0  0  0  0  0  0  0
   -1.0013  -15.9545   19.7381 N   0  0  0  0  0  0  0  0  0  0  0  0
    3.7101  -12.4229   18.4760 C   0  0  0  0  0  0  0  0  0  0  0  0
    4.2324  -12.5222   19.5024 O   0  0  0  0  0  0  0  0  0  0  0  0
    3.9406  -10.6959   17.5151 N   0  0  0  0  0  0  0  0  0  0  0  0
    4.8187   -9.0205   18.1506 C   0  0  0  0  0  0  0  0  0  0  0  0
    5.3799   -7.1847   17.7901 C   0  0  0  0  0  0  0  0  0  0  0  0
    6.6677   -6.4639   18.2445 N   0  0  0  0  0  0  0  0  0  0  0  0
    7.3222   -7.3590   19.4563 N   0  0  0  0  0  0  0  0  0  0  0  0
    9.2994   -7.7435   19.9084 C   0  0  0  0  0  0  0  0  0  0  0  0
   10.7647   -8.0047   21.1282 C   0  0  0  0  0  0  0  0  0  0  0  0
   12.1211   -7.0871   21.2258 C   0  0  0  0  0  0  0  0  0  0  0  0
   11.8030   -5.7557   20.5143 C   0  0  0  0  0  0  0  0  0  0  0  0
   10.1796   -5.9175   19.8724 C   0  0  0  0  0  0  0  0  0  0  0  0
    5.5315   -7.8038   19.2024 C   0  0  0  0  0  0  0  0  0  0  0  0
    3.7897  -15.5860   18.2770 H   0  0  0  0  0  0  0  0  0  0  0  0
    4.3914  -14.6686   17.4669 H   0  0  0  0  0  0  0  0  0  0  0  0
    2.8087  -15.4764   16.8271 H   0  0  0  0  0  0  0  0  0  0  0  0
    2.2495  -14.5349   20.1243 H   0  0  0  0  0  0  0  0  0  0  0  0
    1.5967  -15.0472   18.2659 H   0  0  0  0  0  0  0  0  0  0  0  0
    0.7756  -18.4694   20.8966 H   0  0  0  0  0  0  0  0  0  0  0  0
   -1.6167  -19.0073   20.7202 H   0  0  0  0  0  0  0  0  0  0  0  0
   -2.7551  -16.9214   19.8327 H   0  0  0  0  0  0  0  0  0  0  0  0
    3.5126  -10.7660   16.6093 H   0  0  0  0  0  0  0  0  0  0  0  0
    4.9452   -6.5937   16.9848 H   0  0  0  0  0  0  0  0  0  0  0  0
    9.3968   -8.6642   19.3518 H   0  0  0  0  0  0  0  0  0  0  0  0
   10.5843   -8.4174   22.1291 H   0  0  0  0  0  0  0  0  0  0  0  0
   11.2643   -8.7544   20.5692 H   0  0  0  0  0  0  0  0  0  0  0  0
   12.3980   -6.9395   22.2870 H   0  0  0  0  0  0  0  0  0  0  0  0
   13.0535   -7.5641   20.9320 H   0  0  0  0  0  0  0  0  0  0  0  0
   11.9007   -4.8824   21.1722 H   0  0  0  0  0  0  0  0  0  0  0  0
   12.5155   -5.5330   19.7111 H   0  0  0  0  0  0  0  0  0  0  0  0
    9.5206   -5.1223   20.1019 H   0  0  0  0  0  0  0  0  0  0  0  0
   10.4030   -5.6734   18.8447 H   0  0  0  0  0  0  0  0  0  0  0  0
    5.4709   -7.7102   20.2015 H   0  0  0  0  0  0  0  0  0  0  0  0
  1  2  1  0
  2  3  1  0
  3  4  1  0
  4  5  1  0
  5  6  2  0
  6  7  1  0
  7  8  1  0
  2  9  1  0
  9 10  2  0
  9 11  1  0
 11 12  1  0
 12 13  1  0
 13 14  2  0
 14 15  1  0
 15 16  1  0
 16 17  1  0
 17 18  1  0
 18 19  1  0
 19 20  1  0
 15 21  1  0
  8  4  2  0
 21 12  2  0
 20 16  1  0
  1 22  1  0
  1 23  1  0
  1 24  1  0
  3 25  1  0
  3 26  1  0
  5 27  1  0
  6 28  1  0
  7 29  1  0
 11 30  1  0
 13 31  1  0
 16 32  1  0
 17 33  1  0
 17 34  1  0
 18 35  1  0
 18 36  1  0
 19 37  1  0
 19 38  1  0
 20 39  1  0
 20 40  1  0
 21 41  1  0
M  END
>  <Energy>  (834) 
1496.3485015410909

>  <compound_id>  (834) 
18699

>  <target_id>  (834) 
1

>  <reference_id>  (834) 
81

>  <inspiration_ids>  (834) 
[96, 81]

>  <energy_score>  (834) 
1467.4404800165773

>  <distance_score>  (834) 
12.922542158556656

>  <path>  (834) 
/opt/xchem-fragalysis-2/maxwin/BulkDock/SCRATCH/511023/C18699-P81/C18699-P81.minimised.mol

>  <scratch_subdir>  (834) 
/opt/xchem-fragalysis-2/maxwin/BulkDock/SCRATCH/511023/C18699-P81

>  <fragmenstein_runtime>  (834) 
27.974663972854614

>  <fragmenstein_outcome>  (834) 
too moved

>  <fragmenstein_mode>  (834) 
expansion

>  <fragmenstein_error>  (834) 


$$$$
C28368-P96
     RDKit          3D

 50 52  0  0  0  0  0  0  0  0999 V2000
   -1.4910   -4.8212   19.2937 C   0  0  0  0  0  0  0  0  0  0  0  0
   -0.9164   -6.2023   19.7452 C   0  0  0  0  0  0  0  0  0  0  0  0
   -2.1752   -7.4588   19.4857 C   0  0  0  0  0  0  0  0  0  0  0  0
   -3.2716   -8.1873   20.2958 N   0  0  0  0  0  0  0  0  0  0  0  0
   -4.5441   -7.5592   20.7678 C   0  0  0  0  0  0  0  0  0  0  0  0
   -5.4217   -8.4425   21.7168 C   0  0  0  0  0  0  0  0  0  0  0  0
   -5.1774   -8.8704   23.0610 C   0  0  0  0  0  0  0  0  0  0  0  0
   -6.2638   -9.6293   23.4387 C   0  0  0  0  0  0  0  0  0  0  0  0
   -7.0981   -9.6286   22.3567 N   0  0  0  0  0  0  0  0  0  0  0  0
   -8.3802  -10.2926   22.2454 C   0  0  0  0  0  0  0  0  0  0  0  0
   -8.4322  -11.6836   22.8866 C   0  0  0  0  0  0  0  0  0  0  0  0
   -9.6406  -12.3719   22.2562 C   0  0  0  0  0  0  0  0  0  0  0  0
   -9.9755  -11.5809   20.9944 C   0  0  0  0  0  0  0  0  0  0  0  0
   -8.8321  -10.5930   20.8131 C   0  0  0  0  0  0  0  0  0  0  0  0
   -6.6698   -8.8087   21.3618 N   0  0  0  0  0  0  0  0  0  0  0  0
    0.2117   -6.3014   21.1693 N   0  0  0  0  0  0  0  0  0  0  0  0
   -1.2615   -5.9457   21.6705 C   0  0  0  0  0  0  0  0  0  0  0  0
    1.8744   -5.3889   21.4186 C   0  0  0  0  0  0  0  0  0  0  0  0
    1.8075   -4.3379   21.9581 O   0  0  0  0  0  0  0  0  0  0  0  0
    3.5856   -5.7925   21.1755 C   0  0  0  0  0  0  0  0  0  0  0  0
    4.8119   -5.0064   20.7028 C   0  0  0  0  0  0  0  0  0  0  0  0
    6.0516   -5.3573   21.2577 N   0  0  0  0  0  0  0  0  0  0  0  0
    5.7580   -6.2507   22.1917 N   0  0  0  0  0  0  0  0  0  0  0  0
    4.4140   -6.2616   22.3825 C   0  0  0  0  0  0  0  0  0  0  0  0
   -0.8352   -3.9816   19.5241 H   0  0  0  0  0  0  0  0  0  0  0  0
   -1.6462   -4.8335   18.2087 H   0  0  0  0  0  0  0  0  0  0  0  0
   -2.4725   -4.6266   19.7400 H   0  0  0  0  0  0  0  0  0  0  0  0
   -0.3070   -6.5331   18.9384 H   0  0  0  0  0  0  0  0  0  0  0  0
   -2.6622   -7.1488   18.5517 H   0  0  0  0  0  0  0  0  0  0  0  0
   -1.5291   -8.3054   19.2224 H   0  0  0  0  0  0  0  0  0  0  0  0
   -3.5830   -8.9376   19.6632 H   0  0  0  0  0  0  0  0  0  0  0  0
   -5.1421   -7.2806   19.8921 H   0  0  0  0  0  0  0  0  0  0  0  0
   -4.3180   -6.6391   21.3167 H   0  0  0  0  0  0  0  0  0  0  0  0
   -4.3221   -8.6504   23.6756 H   0  0  0  0  0  0  0  0  0  0  0  0
   -6.4967  -10.1563   24.3519 H   0  0  0  0  0  0  0  0  0  0  0  0
   -9.1103   -9.6315   22.7312 H   0  0  0  0  0  0  0  0  0  0  0  0
   -8.5206  -11.6356   23.9770 H   0  0  0  0  0  0  0  0  0  0  0  0
   -7.5241  -12.2552   22.6564 H   0  0  0  0  0  0  0  0  0  0  0  0
   -9.4128  -13.4178   22.0249 H   0  0  0  0  0  0  0  0  0  0  0  0
  -10.4949  -12.3679   22.9423 H   0  0  0  0  0  0  0  0  0  0  0  0
  -10.9188  -11.0405   21.1377 H   0  0  0  0  0  0  0  0  0  0  0  0
  -10.0970  -12.2293   20.1214 H   0  0  0  0  0  0  0  0  0  0  0  0
   -8.0250  -11.0593   20.2340 H   0  0  0  0  0  0  0  0  0  0  0  0
   -9.1536   -9.6946   20.2762 H   0  0  0  0  0  0  0  0  0  0  0  0
   -1.4234   -4.8724   21.6205 H   0  0  0  0  0  0  0  0  0  0  0  0
   -1.3120   -6.1208   22.7561 H   0  0  0  0  0  0  0  0  0  0  0  0
   -2.1649   -6.4371   21.3658 H   0  0  0  0  0  0  0  0  0  0  0  0
    4.9150   -4.2079   20.0176 H   0  0  0  0  0  0  0  0  0  0  0  0
    6.4960   -6.6375   22.7716 H   0  0  0  0  0  0  0  0  0  0  0  0
    4.1308   -6.4600   23.3974 H   0  0  0  0  0  0  0  0  0  0  0  0
  1  2  1  0
  2  3  1  0
  3  4  1  0
  4  5  1  0
  5  6  1  0
  6  7  1  0
  7  8  2  0
  8  9  1  0
  9 10  1  0
 10 11  1  0
 11 12  1  0
 12 13  1  0
 13 14  1  0
  9 15  1  0
  2 16  1  0
 16 17  1  0
 16 18  1  0
 18 19  2  0
 18 20  1  0
 20 21  1  0
 21 22  2  0
 22 23  1  0
 23 24  1  0
 15  6  2  0
 24 20  2  0
 14 10  1  0
  1 25  1  0
  1 26  1  0
  1 27  1  0
  2 28  1  0
  3 29  1  0
  3 30  1  0
  4 31  1  0
  5 32  1  0
  5 33  1  0
  7 34  1  0
  8 35  1  0
 10 36  1  0
 11 37  1  0
 11 38  1  0
 12 39  1  0
 12 40  1  0
 13 41  1  0
 13 42  1  0
 14 43  1  0
 14 44  1  0
 17 45  1  0
 17 46  1  0
 17 47  1  0
 21 48  1  0
 23 49  1  0
 24 50  1  0
M  END
>  <Energy>  (835) 
433.04856687410637

>  <compound_id>  (835) 
28368

>  <target_id>  (835) 
1

>  <reference_id>  (835) 
96

>  <inspiration_ids>  (835) 
[96, 81]

>  <energy_score>  (835) 
332.71448335343035

>  <distance_score>  (835) 
14.472096579575648

>  <path>  (835) 
/opt/xchem-fragalysis-2/maxwin/BulkDock/SCRATCH/511023/C28368-P96/C28368-P96.minimised.mol

>  <scratch_subdir>  (835) 
/opt/xchem-fragalysis-2/maxwin/BulkDock/SCRATCH/511023/C28368-P96

>  <fragmenstein_runtime>  (835) 
33.68375897407532

>  <fragmenstein_outcome>  (835) 
too moved

>  <fragmenstein_mode>  (835) 
expansion

>  <fragmenstein_error>  (835) 


$$$$
C28368-P81
     RDKit          3D

 50 52  0  0  0  0  0  0  0  0999 V2000
   -5.8027  -13.0460   26.3574 C   0  0  0  0  0  0  0  0  0  0  0  0
   -7.1260  -13.1743   25.5826 C   0  0  0  0  0  0  0  0  0  0  0  0
   -8.0112  -14.5148   26.1641 C   0  0  0  0  0  0  0  0  0  0  0  0
   -7.3699  -15.8047   26.6100 N   0  0  0  0  0  0  0  0  0  0  0  0
   -8.4084  -16.7369   27.3244 C   0  0  0  0  0  0  0  0  0  0  0  0
   -8.5994  -18.3504   27.8771 C   0  0  0  0  0  0  0  0  0  0  0  0
   -8.2050  -19.6002   28.0184 C   0  0  0  0  0  0  0  0  0  0  0  0
   -9.4218  -20.9584   27.6173 C   0  0  0  0  0  0  0  0  0  0  0  0
  -10.1018  -20.5999   28.9513 N   0  0  0  0  0  0  0  0  0  0  0  0
  -11.3177  -21.3843   29.3598 C   0  0  0  0  0  0  0  0  0  0  0  0
  -11.3104  -21.9059   30.8202 C   0  0  0  0  0  0  0  0  0  0  0  0
  -11.4425  -23.4346   30.8377 C   0  0  0  0  0  0  0  0  0  0  0  0
  -11.3597  -23.9066   29.4001 C   0  0  0  0  0  0  0  0  0  0  0  0
  -11.6624  -22.6632   28.5864 C   0  0  0  0  0  0  0  0  0  0  0  0
   -9.6679  -18.8373   28.4430 N   0  0  0  0  0  0  0  0  0  0  0  0
   -7.7335  -11.6015   25.3697 N   0  0  0  0  0  0  0  0  0  0  0  0
   -8.6126  -12.0265   26.4426 C   0  0  0  0  0  0  0  0  0  0  0  0
   -8.0044  -11.3508   23.9736 C   0  0  0  0  0  0  0  0  0  0  0  0
   -9.0085  -11.5199   23.3314 O   0  0  0  0  0  0  0  0  0  0  0  0
   -6.8858  -10.6723   23.2317 C   0  0  0  0  0  0  0  0  0  0  0  0
   -5.8072   -9.8544   23.6951 C   0  0  0  0  0  0  0  0  0  0  0  0
   -5.1595   -9.1923   22.7196 N   0  0  0  0  0  0  0  0  0  0  0  0
   -5.7613   -9.6123   21.6051 N   0  0  0  0  0  0  0  0  0  0  0  0
   -6.8253  -10.4364   21.8548 C   0  0  0  0  0  0  0  0  0  0  0  0
   -5.1769  -12.2597   25.9228 H   0  0  0  0  0  0  0  0  0  0  0  0
   -5.9723  -12.7937   27.4082 H   0  0  0  0  0  0  0  0  0  0  0  0
   -5.2358  -13.9813   26.3196 H   0  0  0  0  0  0  0  0  0  0  0  0
   -6.8510  -13.4706   24.5596 H   0  0  0  0  0  0  0  0  0  0  0  0
   -8.5518  -14.2104   27.0632 H   0  0  0  0  0  0  0  0  0  0  0  0
   -8.7549  -14.7447   25.3906 H   0  0  0  0  0  0  0  0  0  0  0  0
   -7.0164  -16.3420   25.8115 H   0  0  0  0  0  0  0  0  0  0  0  0
   -8.0176  -16.3687   28.2404 H   0  0  0  0  0  0  0  0  0  0  0  0
   -9.3919  -16.4483   26.9366 H   0  0  0  0  0  0  0  0  0  0  0  0
   -7.3644  -20.1921   27.5109 H   0  0  0  0  0  0  0  0  0  0  0  0
   -9.1673  -22.0214   27.8329 H   0  0  0  0  0  0  0  0  0  0  0  0
  -12.1525  -20.7269   29.1494 H   0  0  0  0  0  0  0  0  0  0  0  0
  -10.4223  -21.5652   31.3395 H   0  0  0  0  0  0  0  0  0  0  0  0
  -12.1424  -21.5447   31.4200 H   0  0  0  0  0  0  0  0  0  0  0  0
  -10.6769  -23.9039   31.4640 H   0  0  0  0  0  0  0  0  0  0  0  0
  -12.4078  -23.7094   31.2723 H   0  0  0  0  0  0  0  0  0  0  0  0
  -12.0875  -24.7008   29.2018 H   0  0  0  0  0  0  0  0  0  0  0  0
  -10.3839  -24.3328   29.1501 H   0  0  0  0  0  0  0  0  0  0  0  0
  -12.7420  -22.6427   28.5735 H   0  0  0  0  0  0  0  0  0  0  0  0
  -11.3144  -22.7221   27.5552 H   0  0  0  0  0  0  0  0  0  0  0  0
   -9.1543  -11.0974   26.6824 H   0  0  0  0  0  0  0  0  0  0  0  0
   -8.1350  -12.2473   27.4044 H   0  0  0  0  0  0  0  0  0  0  0  0
   -9.4453  -12.6498   26.0960 H   0  0  0  0  0  0  0  0  0  0  0  0
   -5.5121   -9.6860   24.7210 H   0  0  0  0  0  0  0  0  0  0  0  0
   -5.4158   -9.2803   20.7120 H   0  0  0  0  0  0  0  0  0  0  0  0
   -7.4625  -10.7806   21.0540 H   0  0  0  0  0  0  0  0  0  0  0  0
  1  2  1  0
  2  3  1  0
  3  4  1  0
  4  5  1  0
  5  6  1  0
  6  7  1  0
  7  8  2  0
  8  9  1  0
  9 10  1  0
 10 11  1  0
 11 12  1  0
 12 13  1  0
 13 14  1  0
  9 15  1  0
  2 16  1  0
 16 17  1  0
 16 18  1  0
 18 19  2  0
 18 20  1  0
 20 21  1  0
 21 22  2  0
 22 23  1  0
 23 24  1  0
 15  6  2  0
 24 20  2  0
 14 10  1  0
  1 25  1  0
  1 26  1  0
  1 27  1  0
  2 28  1  0
  3 29  1  0
  3 30  1  0
  4 31  1  0
  5 32  1  0
  5 33  1  0
  7 34  1  0
  8 35  1  0
 10 36  1  0
 11 37  1  0
 11 38  1  0
 12 39  1  0
 12 40  1  0
 13 41  1  0
 13 42  1  0
 14 43  1  0
 14 44  1  0
 17 45  1  0
 17 46  1  0
 17 47  1  0
 21 48  1  0
 23 49  1  0
 24 50  1  0
M  END
>  <Energy>  (836) 
510.34486677994141

>  <compound_id>  (836) 
28368

>  <target_id>  (836) 
1

>  <reference_id>  (836) 
81

>  <inspiration_ids>  (836) 
[96, 81]

>  <energy_score>  (836) 
410.010783259262

>  <distance_score>  (836) 
14.57722545973583

>  <path>  (836) 
/opt/xchem-fragalysis-2/maxwin/BulkDock/SCRATCH/511023/C28368-P81/C28368-P81.minimised.mol

>  <scratch_subdir>  (836) 
/opt/xchem-fragalysis-2/maxwin/BulkDock/SCRATCH/511023/C28368-P81

>  <fragmenstein_runtime>  (836) 
40.314417600631714

>  <fragmenstein_outcome>  (836) 
too moved

>  <fragmenstein_mode>  (836) 
expansion

>  <fragmenstein_error>  (836) 


$$$$
C18700-P96
     RDKit          3D

 50 52  0  0  0  0  0  0  0  0999 V2000
    3.6481  -17.3165   24.0457 C   0  0  0  0  0  0  0  0  0  0  0  0
    2.5725  -16.0953   24.1017 C   0  0  0  0  0  0  0  0  0  0  0  0
    0.8286  -17.2941   23.7410 C   0  0  0  0  0  0  0  0  0  0  0  0
   -0.4361  -18.3919   22.5848 N   0  0  0  0  0  0  0  0  0  0  0  0
   -1.9364  -19.6264   23.1054 C   0  0  0  0  0  0  0  0  0  0  0  0
   -3.6595  -20.2527   23.9823 C   0  0  0  0  0  0  0  0  0  0  0  0
   -4.1172  -21.6895   23.8428 C   0  0  0  0  0  0  0  0  0  0  0  0
   -4.7960  -22.2784   24.9651 C   0  0  0  0  0  0  0  0  0  0  0  0
   -4.8999  -21.5098   26.3030 N   0  0  0  0  0  0  0  0  0  0  0  0
   -5.9767  -21.9487   27.8979 C   0  0  0  0  0  0  0  0  0  0  0  0
   -7.3230  -21.2906   27.7305 C   0  0  0  0  0  0  0  0  0  0  0  0
   -8.7218  -22.1031   28.2142 C   0  0  0  0  0  0  0  0  0  0  0  0
   -8.5135  -23.2823   29.1004 C   0  0  0  0  0  0  0  0  0  0  0  0
   -6.9476  -23.4653   29.1556 C   0  0  0  0  0  0  0  0  0  0  0  0
   -4.4285  -20.0461   25.4655 N   0  0  0  0  0  0  0  0  0  0  0  0
    3.3477  -14.4518   25.0426 N   0  0  0  0  0  0  0  0  0  0  0  0
    2.0670  -14.6505   25.8742 C   0  0  0  0  0  0  0  0  0  0  0  0
    3.5848  -12.5929   24.4335 C   0  0  0  0  0  0  0  0  0  0  0  0
    3.1098  -12.3610   23.3592 O   0  0  0  0  0  0  0  0  0  0  0  0
    4.4182  -10.9866   25.0924 C   0  0  0  0  0  0  0  0  0  0  0  0
    5.4916  -10.2329   24.0975 C   0  0  0  0  0  0  0  0  0  0  0  0
    5.9107   -9.0361   24.6163 C   0  0  0  0  0  0  0  0  0  0  0  0
    5.1884   -8.9277   25.7414 N   0  0  0  0  0  0  0  0  0  0  0  0
    4.3022   -9.9253   25.9760 N   0  0  0  0  0  0  0  0  0  0  0  0
    3.5993  -17.6310   23.0041 H   0  0  0  0  0  0  0  0  0  0  0  0
    3.5502  -18.3731   24.2154 H   0  0  0  0  0  0  0  0  0  0  0  0
    4.5171  -17.2570   24.6771 H   0  0  0  0  0  0  0  0  0  0  0  0
    2.7902  -15.7992   23.0877 H   0  0  0  0  0  0  0  0  0  0  0  0
    0.4546  -16.5866   23.2405 H   0  0  0  0  0  0  0  0  0  0  0  0
    0.2545  -17.0136   24.6968 H   0  0  0  0  0  0  0  0  0  0  0  0
   -0.8483  -17.6965   21.9706 H   0  0  0  0  0  0  0  0  0  0  0  0
   -1.3288  -20.5352   23.2653 H   0  0  0  0  0  0  0  0  0  0  0  0
   -2.2869  -19.8055   22.0852 H   0  0  0  0  0  0  0  0  0  0  0  0
   -3.8982  -22.2650   22.9514 H   0  0  0  0  0  0  0  0  0  0  0  0
   -5.3476  -23.1895   24.9239 H   0  0  0  0  0  0  0  0  0  0  0  0
   -6.1362  -22.2868   26.8826 H   0  0  0  0  0  0  0  0  0  0  0  0
   -7.3723  -21.4719   26.6887 H   0  0  0  0  0  0  0  0  0  0  0  0
   -7.2720  -20.2282   27.6490 H   0  0  0  0  0  0  0  0  0  0  0  0
   -9.1998  -22.5864   27.3487 H   0  0  0  0  0  0  0  0  0  0  0  0
   -9.4958  -21.4128   28.5737 H   0  0  0  0  0  0  0  0  0  0  0  0
   -8.9852  -24.1855   28.6897 H   0  0  0  0  0  0  0  0  0  0  0  0
   -8.9556  -23.1618   30.0960 H   0  0  0  0  0  0  0  0  0  0  0  0
   -6.9711  -23.4163   30.2832 H   0  0  0  0  0  0  0  0  0  0  0  0
   -6.8225  -24.5578   28.9510 H   0  0  0  0  0  0  0  0  0  0  0  0
    1.5227  -15.5657   25.9164 H   0  0  0  0  0  0  0  0  0  0  0  0
    2.7108  -14.5935   26.7188 H   0  0  0  0  0  0  0  0  0  0  0  0
    1.4670  -13.8152   26.2494 H   0  0  0  0  0  0  0  0  0  0  0  0
    5.7984  -10.5022   23.1162 H   0  0  0  0  0  0  0  0  0  0  0  0
    6.5935   -8.2753   24.2681 H   0  0  0  0  0  0  0  0  0  0  0  0
    5.2077   -8.1690   26.4141 H   0  0  0  0  0  0  0  0  0  0  0  0
  1  2  1  0
  2  3  1  0
  3  4  1  0
  4  5  1  0
  5  6  1  0
  6  7  1  0
  7  8  2  0
  8  9  1  0
  9 10  1  0
 10 11  1  0
 11 12  1  0
 12 13  1  0
 13 14  1  0
  9 15  1  0
  2 16  1  0
 16 17  1  0
 16 18  1  0
 18 19  2  0
 18 20  1  0
 20 21  1  0
 21 22  2  0
 22 23  1  0
 23 24  1  0
 15  6  2  0
 24 20  2  0
 14 10  1  0
  1 25  1  0
  1 26  1  0
  1 27  1  0
  2 28  1  0
  3 29  1  0
  3 30  1  0
  4 31  1  0
  5 32  1  0
  5 33  1  0
  7 34  1  0
  8 35  1  0
 10 36  1  0
 11 37  1  0
 11 38  1  0
 12 39  1  0
 12 40  1  0
 13 41  1  0
 13 42  1  0
 14 43  1  0
 14 44  1  0
 17 45  1  0
 17 46  1  0
 17 47  1  0
 21 48  1  0
 22 49  1  0
 23 50  1  0
M  END
>  <Energy>  (837) 
1505.8547002506141

>  <compound_id>  (837) 
18700

>  <target_id>  (837) 
1

>  <reference_id>  (837) 
96

>  <inspiration_ids>  (837) 
[96, 81]

>  <energy_score>  (837) 
1349.2390057666291

>  <distance_score>  (837) 
11.601002893359544

>  <path>  (837) 
/opt/xchem-fragalysis-2/maxwin/BulkDock/SCRATCH/511023/C18700-P96/C18700-P96.minimised.mol

>  <scratch_subdir>  (837) 
/opt/xchem-fragalysis-2/maxwin/BulkDock/SCRATCH/511023/C18700-P96

>  <fragmenstein_runtime>  (837) 
44.258222818374634

>  <fragmenstein_outcome>  (837) 
too moved

>  <fragmenstein_mode>  (837) 
expansion

>  <fragmenstein_error>  (837) 


$$$$
C18700-P81
     RDKit          3D

 50 52  0  0  0  0  0  0  0  0999 V2000
    3.1305  -13.9299   21.3695 C   0  0  0  0  0  0  0  0  0  0  0  0
    2.2960  -14.8583   19.8702 C   0  0  0  0  0  0  0  0  0  0  0  0
    0.7393  -16.2485   20.3162 C   0  0  0  0  0  0  0  0  0  0  0  0
    0.0249  -17.9169   20.9375 N   0  0  0  0  0  0  0  0  0  0  0  0
   -0.4930  -19.0993   22.3541 C   0  0  0  0  0  0  0  0  0  0  0  0
   -1.1900  -20.8888   22.5913 C   0  0  0  0  0  0  0  0  0  0  0  0
   -0.5666  -22.1380   22.1362 C   0  0  0  0  0  0  0  0  0  0  0  0
   -1.2787  -23.2122   22.4847 C   0  0  0  0  0  0  0  0  0  0  0  0
   -2.1387  -22.6758   23.3516 N   0  0  0  0  0  0  0  0  0  0  0  0
   -2.8373  -23.6507   24.1388 C   0  0  0  0  0  0  0  0  0  0  0  0
   -3.3477  -23.1717   25.4573 C   0  0  0  0  0  0  0  0  0  0  0  0
   -4.6963  -22.6882   25.0853 C   0  0  0  0  0  0  0  0  0  0  0  0
   -5.0996  -23.2871   23.7193 C   0  0  0  0  0  0  0  0  0  0  0  0
   -3.9642  -24.1253   23.2536 C   0  0  0  0  0  0  0  0  0  0  0  0
   -2.3000  -21.3081   23.2879 N   0  0  0  0  0  0  0  0  0  0  0  0
    3.5621  -13.6244   19.0001 N   0  0  0  0  0  0  0  0  0  0  0  0
    3.8114  -14.8473   18.1073 C   0  0  0  0  0  0  0  0  0  0  0  0
    5.0338  -12.9873   19.5594 C   0  0  0  0  0  0  0  0  0  0  0  0
    5.4690  -13.3634   20.5601 O   0  0  0  0  0  0  0  0  0  0  0  0
    5.8105  -11.9626   19.1103 C   0  0  0  0  0  0  0  0  0  0  0  0
    6.3156  -11.3652   20.1824 C   0  0  0  0  0  0  0  0  0  0  0  0
    7.5660  -11.4189   19.7417 C   0  0  0  0  0  0  0  0  0  0  0  0
    7.3827  -10.5682   18.8017 N   0  0  0  0  0  0  0  0  0  0  0  0
    6.0888  -10.8186   18.5685 N   0  0  0  0  0  0  0  0  0  0  0  0
    3.0407  -13.0090   22.0958 H   0  0  0  0  0  0  0  0  0  0  0  0
    3.2854  -14.5911   22.2529 H   0  0  0  0  0  0  0  0  0  0  0  0
    3.5941  -13.0657   20.9415 H   0  0  0  0  0  0  0  0  0  0  0  0
    2.0753  -14.7175   18.7953 H   0  0  0  0  0  0  0  0  0  0  0  0
   -0.2895  -16.0469   20.0295 H   0  0  0  0  0  0  0  0  0  0  0  0
    0.7987  -16.7774   19.3984 H   0  0  0  0  0  0  0  0  0  0  0  0
   -0.9446  -17.6477   20.7070 H   0  0  0  0  0  0  0  0  0  0  0  0
    0.2303  -19.3289   23.1099 H   0  0  0  0  0  0  0  0  0  0  0  0
   -1.4932  -18.8975   22.3786 H   0  0  0  0  0  0  0  0  0  0  0  0
    0.2374  -22.2883   21.4523 H   0  0  0  0  0  0  0  0  0  0  0  0
   -1.1630  -24.2663   22.2709 H   0  0  0  0  0  0  0  0  0  0  0  0
   -2.1347  -24.4734   24.3340 H   0  0  0  0  0  0  0  0  0  0  0  0
   -2.7937  -22.3699   25.9360 H   0  0  0  0  0  0  0  0  0  0  0  0
   -3.3883  -23.9623   26.2011 H   0  0  0  0  0  0  0  0  0  0  0  0
   -4.6156  -21.5990   24.9998 H   0  0  0  0  0  0  0  0  0  0  0  0
   -5.3955  -22.9329   25.8863 H   0  0  0  0  0  0  0  0  0  0  0  0
   -5.2673  -22.4791   22.9945 H   0  0  0  0  0  0  0  0  0  0  0  0
   -6.0159  -23.8811   23.7563 H   0  0  0  0  0  0  0  0  0  0  0  0
   -4.1397  -25.1820   23.3590 H   0  0  0  0  0  0  0  0  0  0  0  0
   -3.8094  -23.9887   22.1755 H   0  0  0  0  0  0  0  0  0  0  0  0
    4.6917  -14.6935   17.5742 H   0  0  0  0  0  0  0  0  0  0  0  0
    4.2350  -15.7107   18.5707 H   0  0  0  0  0  0  0  0  0  0  0  0
    2.9996  -15.1277   17.4341 H   0  0  0  0  0  0  0  0  0  0  0  0
    5.9379  -11.3188   21.1481 H   0  0  0  0  0  0  0  0  0  0  0  0
    8.3703  -12.0621   20.0153 H   0  0  0  0  0  0  0  0  0  0  0  0
    7.9023  -10.0106   18.1208 H   0  0  0  0  0  0  0  0  0  0  0  0
  1  2  1  0
  2  3  1  0
  3  4  1  0
  4  5  1  0
  5  6  1  0
  6  7  1  0
  7  8  2  0
  8  9  1  0
  9 10  1  0
 10 11  1  0
 11 12  1  0
 12 13  1  0
 13 14  1  0
  9 15  1  0
  2 16  1  0
 16 17  1  0
 16 18  1  0
 18 19  2  0
 18 20  1  0
 20 21  1  0
 21 22  2  0
 22 23  1  0
 23 24  1  0
 15  6  2  0
 24 20  2  0
 14 10  1  0
  1 25  1  0
  1 26  1  0
  1 27  1  0
  2 28  1  0
  3 29  1  0
  3 30  1  0
  4 31  1  0
  5 32  1  0
  5 33  1  0
  7 34  1  0
  8 35  1  0
 10 36  1  0
 11 37  1  0
 11 38  1  0
 12 39  1  0
 12 40  1  0
 13 41  1  0
 13 42  1  0
 14 43  1  0
 14 44  1  0
 17 45  1  0
 17 46  1  0
 17 47  1  0
 21 48  1  0
 22 49  1  0
 23 50  1  0
M  END
>  <Energy>  (838) 
1084.5243509716183

>  <compound_id>  (838) 
18700

>  <target_id>  (838) 
1

>  <reference_id>  (838) 
81

>  <inspiration_ids>  (838) 
[96, 81]

>  <energy_score>  (838) 
927.9086564876538

>  <distance_score>  (838) 
11.834400003354475

>  <path>  (838) 
/opt/xchem-fragalysis-2/maxwin/BulkDock/SCRATCH/511023/C18700-P81/C18700-P81.minimised.mol

>  <scratch_subdir>  (838) 
/opt/xchem-fragalysis-2/maxwin/BulkDock/SCRATCH/511023/C18700-P81

>  <fragmenstein_runtime>  (838) 
51.10311818122864

>  <fragmenstein_outcome>  (838) 
too moved

>  <fragmenstein_mode>  (838) 
expansion

>  <fragmenstein_error>  (838) 


$$$$
C28369-P96
     RDKit          3D

 47 49  0  0  0  0  0  0  0  0999 V2000
    3.1247  -11.3279   18.8831 O   0  0  0  0  0  0  0  0  0  0  0  0
    3.3943  -11.6929   17.7877 C   0  0  0  0  0  0  0  0  0  0  0  0
    2.7275  -12.7335   16.9179 N   0  0  0  0  0  0  0  0  0  0  0  0
    1.6495  -13.6357   17.1997 C   0  0  0  0  0  0  0  0  0  0  0  0
    1.1632  -13.8520   19.0703 C   0  0  0  0  0  0  0  0  0  0  0  0
    2.2629  -12.9244   20.6310 C   0  0  0  0  0  0  0  0  0  0  0  0
    2.2406  -11.4259   21.1514 O   0  0  0  0  0  0  0  0  0  0  0  0
   -0.3535  -15.1919   19.1706 N   0  0  0  0  0  0  0  0  0  0  0  0
   -0.4126  -16.7226   19.6754 C   0  0  0  0  0  0  0  0  0  0  0  0
    0.4285  -17.4033   20.1888 O   0  0  0  0  0  0  0  0  0  0  0  0
   -1.7218  -17.5191   19.5554 C   0  0  0  0  0  0  0  0  0  0  0  0
   -1.7804  -18.8064   20.1658 C   0  0  0  0  0  0  0  0  0  0  0  0
   -3.1068  -19.2447   20.1705 C   0  0  0  0  0  0  0  0  0  0  0  0
   -3.8856  -18.3180   19.6277 N   0  0  0  0  0  0  0  0  0  0  0  0
   -2.9967  -17.4901   18.9913 N   0  0  0  0  0  0  0  0  0  0  0  0
   -3.3412  -17.1729   17.6108 C   0  0  0  0  0  0  0  0  0  0  0  0
   -2.8246  -18.2294   16.6173 C   0  0  0  0  0  0  0  0  0  0  0  0
   -3.8929  -19.3163   16.5869 C   0  0  0  0  0  0  0  0  0  0  0  0
   -5.2096  -18.5990   16.8628 C   0  0  0  0  0  0  0  0  0  0  0  0
   -4.8463  -17.1723   17.2831 C   0  0  0  0  0  0  0  0  0  0  0  0
    4.4985  -10.9637   17.3091 C   0  0  0  0  0  0  0  0  0  0  0  0
    5.5204  -10.7137   18.1294 C   0  0  0  0  0  0  0  0  0  0  0  0
    6.5556  -10.1064   17.5318 N   0  0  0  0  0  0  0  0  0  0  0  0
    5.9235   -9.2408   16.8273 N   0  0  0  0  0  0  0  0  0  0  0  0
    4.7232   -9.8034   16.6314 C   0  0  0  0  0  0  0  0  0  0  0  0
    3.2375  -12.8524   16.1122 H   0  0  0  0  0  0  0  0  0  0  0  0
    1.9335  -14.5586   16.7116 H   0  0  0  0  0  0  0  0  0  0  0  0
    0.8413  -13.3348   16.5286 H   0  0  0  0  0  0  0  0  0  0  0  0
    1.9284  -14.3841   18.9030 H   0  0  0  0  0  0  0  0  0  0  0  0
    1.6455  -13.0816   21.5471 H   0  0  0  0  0  0  0  0  0  0  0  0
    3.0389  -13.4766   21.1973 H   0  0  0  0  0  0  0  0  0  0  0  0
    2.2060  -11.0067   20.2671 H   0  0  0  0  0  0  0  0  0  0  0  0
   -1.2204  -14.9571   18.7094 H   0  0  0  0  0  0  0  0  0  0  0  0
   -0.9399  -19.2971   20.6436 H   0  0  0  0  0  0  0  0  0  0  0  0
   -3.5394  -20.1363   20.6049 H   0  0  0  0  0  0  0  0  0  0  0  0
   -2.9310  -16.1833   17.4535 H   0  0  0  0  0  0  0  0  0  0  0  0
   -1.8385  -18.6321   16.8678 H   0  0  0  0  0  0  0  0  0  0  0  0
   -2.7674  -17.8028   15.6092 H   0  0  0  0  0  0  0  0  0  0  0  0
   -3.7013  -20.0689   17.3591 H   0  0  0  0  0  0  0  0  0  0  0  0
   -3.9084  -19.8397   15.6254 H   0  0  0  0  0  0  0  0  0  0  0  0
   -5.8478  -18.5846   15.9724 H   0  0  0  0  0  0  0  0  0  0  0  0
   -5.7694  -19.1152   17.6502 H   0  0  0  0  0  0  0  0  0  0  0  0
   -5.0215  -16.5166   16.4212 H   0  0  0  0  0  0  0  0  0  0  0  0
   -5.4773  -16.8157   18.1032 H   0  0  0  0  0  0  0  0  0  0  0  0
    5.6911  -11.1546   19.0258 H   0  0  0  0  0  0  0  0  0  0  0  0
    6.3703   -8.4959   16.3041 H   0  0  0  0  0  0  0  0  0  0  0  0
    4.1535   -9.1652   16.0203 H   0  0  0  0  0  0  0  0  0  0  0  0
  1  2  2  0
  2  3  1  0
  3  4  1  0
  4  5  1  0
  5  6  1  0
  6  7  1  0
  5  8  1  0
  8  9  1  0
  9 10  2  0
  9 11  1  0
 11 12  2  0
 12 13  1  0
 13 14  2  0
 14 15  1  0
 15 16  1  0
 16 17  1  0
 17 18  1  0
 18 19  1  0
 19 20  1  0
  2 21  1  0
 21 22  1  0
 22 23  2  0
 23 24  1  0
 24 25  1  0
 15 11  1  0
 20 16  1  0
 25 21  2  0
  3 26  1  0
  4 27  1  0
  4 28  1  0
  5 29  1  0
  6 30  1  0
  6 31  1  0
  7 32  1  0
  8 33  1  0
 12 34  1  0
 13 35  1  0
 16 36  1  0
 17 37  1  0
 17 38  1  0
 18 39  1  0
 18 40  1  0
 19 41  1  0
 19 42  1  0
 20 43  1  0
 20 44  1  0
 22 45  1  0
 24 46  1  0
 25 47  1  0
M  END
>  <Energy>  (839) 
410.69539178299766

>  <compound_id>  (839) 
28369

>  <target_id>  (839) 
1

>  <reference_id>  (839) 
96

>  <inspiration_ids>  (839) 
[96, 81]

>  <energy_score>  (839) 
365.7352798369312

>  <distance_score>  (839) 
12.452802403375394

>  <path>  (839) 
/opt/xchem-fragalysis-2/maxwin/BulkDock/SCRATCH/511023/C28369-P96/C28369-P96.minimised.mol

>  <scratch_subdir>  (839) 
/opt/xchem-fragalysis-2/maxwin/BulkDock/SCRATCH/511023/C28369-P96

>  <fragmenstein_runtime>  (839) 
33.53302478790283

>  <fragmenstein_outcome>  (839) 
too moved

>  <fragmenstein_mode>  (839) 
expansion

>  <fragmenstein_error>  (839) 


$$$$
C28369-P81
     RDKit          3D

 47 49  0  0  0  0  0  0  0  0999 V2000
    2.4810   -9.9613   18.0980 O   0  0  0  0  0  0  0  0  0  0  0  0
    2.3471   -8.9465   18.6792 C   0  0  0  0  0  0  0  0  0  0  0  0
    1.1765   -8.9067   20.2265 N   0  0  0  0  0  0  0  0  0  0  0  0
    0.2256  -10.3222   21.1764 C   0  0  0  0  0  0  0  0  0  0  0  0
    0.6952  -11.7694   22.5769 C   0  0  0  0  0  0  0  0  0  0  0  0
    2.2592  -12.1318   23.3519 C   0  0  0  0  0  0  0  0  0  0  0  0
    3.3562  -11.7103   22.6315 O   0  0  0  0  0  0  0  0  0  0  0  0
   -0.2769  -13.4976   23.0235 N   0  0  0  0  0  0  0  0  0  0  0  0
   -1.2647  -13.9965   24.5552 C   0  0  0  0  0  0  0  0  0  0  0  0
   -1.3144  -13.3047   25.4986 O   0  0  0  0  0  0  0  0  0  0  0  0
   -2.3826  -15.3608   24.7804 C   0  0  0  0  0  0  0  0  0  0  0  0
   -3.7479  -15.4894   24.2531 C   0  0  0  0  0  0  0  0  0  0  0  0
   -4.6645  -14.8097   25.0795 C   0  0  0  0  0  0  0  0  0  0  0  0
   -4.1210  -14.6398   26.2667 N   0  0  0  0  0  0  0  0  0  0  0  0
   -3.0459  -15.4733   26.1772 N   0  0  0  0  0  0  0  0  0  0  0  0
   -3.1607  -16.6289   27.0816 C   0  0  0  0  0  0  0  0  0  0  0  0
   -2.7362  -18.0330   26.6226 C   0  0  0  0  0  0  0  0  0  0  0  0
   -1.7334  -18.5203   27.6627 C   0  0  0  0  0  0  0  0  0  0  0  0
   -2.1253  -17.7844   28.9331 C   0  0  0  0  0  0  0  0  0  0  0  0
   -2.4951  -16.3925   28.4439 C   0  0  0  0  0  0  0  0  0  0  0  0
    3.5647   -7.6729   17.9609 C   0  0  0  0  0  0  0  0  0  0  0  0
    5.1348   -7.1883   18.4609 C   0  0  0  0  0  0  0  0  0  0  0  0
    5.9585   -6.2008   18.0796 N   0  0  0  0  0  0  0  0  0  0  0  0
    5.3954   -5.7964   17.0060 N   0  0  0  0  0  0  0  0  0  0  0  0
    4.3545   -6.6161   16.7167 C   0  0  0  0  0  0  0  0  0  0  0  0
    1.0906   -7.9512   20.5565 H   0  0  0  0  0  0  0  0  0  0  0  0
   -0.8035  -10.5089   20.7938 H   0  0  0  0  0  0  0  0  0  0  0  0
   -0.1187   -9.5594   21.9027 H   0  0  0  0  0  0  0  0  0  0  0  0
    0.2689  -11.0001   23.0937 H   0  0  0  0  0  0  0  0  0  0  0  0
    2.1184  -11.8450   24.3593 H   0  0  0  0  0  0  0  0  0  0  0  0
    2.5157  -13.1728   23.5631 H   0  0  0  0  0  0  0  0  0  0  0  0
    3.4368  -10.7635   22.7572 H   0  0  0  0  0  0  0  0  0  0  0  0
   -0.2899  -14.2566   22.3580 H   0  0  0  0  0  0  0  0  0  0  0  0
   -4.0656  -15.7904   23.2739 H   0  0  0  0  0  0  0  0  0  0  0  0
   -5.6743  -14.4752   24.8762 H   0  0  0  0  0  0  0  0  0  0  0  0
   -4.2412  -16.7212   27.2790 H   0  0  0  0  0  0  0  0  0  0  0  0
   -2.3366  -18.0913   25.6147 H   0  0  0  0  0  0  0  0  0  0  0  0
   -3.6136  -18.6931   26.6403 H   0  0  0  0  0  0  0  0  0  0  0  0
   -1.7654  -19.6067   27.7877 H   0  0  0  0  0  0  0  0  0  0  0  0
   -0.7152  -18.2472   27.3661 H   0  0  0  0  0  0  0  0  0  0  0  0
   -1.3164  -17.7642   29.6690 H   0  0  0  0  0  0  0  0  0  0  0  0
   -2.9958  -18.2645   29.3952 H   0  0  0  0  0  0  0  0  0  0  0  0
   -1.6033  -15.7680   28.3618 H   0  0  0  0  0  0  0  0  0  0  0  0
   -3.1706  -15.8878   29.1432 H   0  0  0  0  0  0  0  0  0  0  0  0
    5.5143   -7.7131   19.2865 H   0  0  0  0  0  0  0  0  0  0  0  0
    5.8258   -5.0786   16.4297 H   0  0  0  0  0  0  0  0  0  0  0  0
    3.9258   -6.4162   15.7146 H   0  0  0  0  0  0  0  0  0  0  0  0
  1  2  2  0
  2  3  1  0
  3  4  1  0
  4  5  1  0
  5  6  1  0
  6  7  1  0
  5  8  1  0
  8  9  1  0
  9 10  2  0
  9 11  1  0
 11 12  2  0
 12 13  1  0
 13 14  2  0
 14 15  1  0
 15 16  1  0
 16 17  1  0
 17 18  1  0
 18 19  1  0
 19 20  1  0
  2 21  1  0
 21 22  1  0
 22 23  2  0
 23 24  1  0
 24 25  1  0
 15 11  1  0
 20 16  1  0
 25 21  2  0
  3 26  1  0
  4 27  1  0
  4 28  1  0
  5 29  1  0
  6 30  1  0
  6 31  1  0
  7 32  1  0
  8 33  1  0
 12 34  1  0
 13 35  1  0
 16 36  1  0
 17 37  1  0
 17 38  1  0
 18 39  1  0
 18 40  1  0
 19 41  1  0
 19 42  1  0
 20 43  1  0
 20 44  1  0
 22 45  1  0
 24 46  1  0
 25 47  1  0
M  END
>  <Energy>  (840) 
819.2284623131502

>  <compound_id>  (840) 
28369

>  <target_id>  (840) 
1

>  <reference_id>  (840) 
81

>  <inspiration_ids>  (840) 
[96, 81]

>  <energy_score>  (840) 
774.2683503670917

>  <distance_score>  (840) 
10.99714641044785

>  <path>  (840) 
/opt/xchem-fragalysis-2/maxwin/BulkDock/SCRATCH/511023/C28369-P81/C28369-P81.minimised.mol

>  <scratch_subdir>  (840) 
/opt/xchem-fragalysis-2/maxwin/BulkDock/SCRATCH/511023/C28369-P81

>  <fragmenstein_runtime>  (840) 
43.643611907958984

>  <fragmenstein_outcome>  (840) 
too moved

>  <fragmenstein_mode>  (840) 
expansion

>  <fragmenstein_error>  (840) 


$$$$
C18701-P96
     RDKit          3D

 47 49  0  0  0  0  0  0  0  0999 V2000
   -1.0693  -13.0314   20.9206 O   0  0  0  0  0  0  0  0  0  0  0  0
   -1.1168  -13.0239   22.0830 C   0  0  0  0  0  0  0  0  0  0  0  0
   -2.4437  -13.7522   22.9466 N   0  0  0  0  0  0  0  0  0  0  0  0
   -3.9355  -14.4682   22.3748 C   0  0  0  0  0  0  0  0  0  0  0  0
   -4.6202  -15.7781   20.9068 C   0  0  0  0  0  0  0  0  0  0  0  0
   -3.5897  -16.2404   19.3878 C   0  0  0  0  0  0  0  0  0  0  0  0
   -2.8827  -15.2085   18.7653 O   0  0  0  0  0  0  0  0  0  0  0  0
   -5.9326  -17.1944   20.7609 N   0  0  0  0  0  0  0  0  0  0  0  0
   -6.5993  -18.0478   21.8286 C   0  0  0  0  0  0  0  0  0  0  0  0
   -6.5373  -17.9781   23.0125 O   0  0  0  0  0  0  0  0  0  0  0  0
   -7.4503  -19.3837   21.3788 C   0  0  0  0  0  0  0  0  0  0  0  0
   -6.9913  -20.1487   20.2870 C   0  0  0  0  0  0  0  0  0  0  0  0
   -6.7241  -21.4530   20.7975 C   0  0  0  0  0  0  0  0  0  0  0  0
   -7.1421  -21.6520   22.0440 N   0  0  0  0  0  0  0  0  0  0  0  0
   -8.0558  -20.6541   22.2071 N   0  0  0  0  0  0  0  0  0  0  0  0
   -9.5039  -21.2510   22.4481 C   0  0  0  0  0  0  0  0  0  0  0  0
   -9.8814  -22.3096   23.5438 C   0  0  0  0  0  0  0  0  0  0  0  0
  -11.1583  -22.2640   24.4220 C   0  0  0  0  0  0  0  0  0  0  0  0
  -11.8096  -21.1160   23.7719 C   0  0  0  0  0  0  0  0  0  0  0  0
  -10.7693  -20.4809   22.8491 C   0  0  0  0  0  0  0  0  0  0  0  0
    0.2104  -12.4236   22.6330 C   0  0  0  0  0  0  0  0  0  0  0  0
    1.8912  -12.3560   21.7818 C   0  0  0  0  0  0  0  0  0  0  0  0
    2.1335  -11.0575   21.5630 C   0  0  0  0  0  0  0  0  0  0  0  0
    1.1866  -10.6054   22.3439 N   0  0  0  0  0  0  0  0  0  0  0  0
    0.7933  -11.3628   23.5234 N   0  0  0  0  0  0  0  0  0  0  0  0
   -2.3397  -13.5600   23.9090 H   0  0  0  0  0  0  0  0  0  0  0  0
   -4.7158  -13.7336   22.3685 H   0  0  0  0  0  0  0  0  0  0  0  0
   -4.1620  -14.5722   23.4347 H   0  0  0  0  0  0  0  0  0  0  0  0
   -5.2263  -15.1710   20.4466 H   0  0  0  0  0  0  0  0  0  0  0  0
   -4.2222  -16.7617   18.6545 H   0  0  0  0  0  0  0  0  0  0  0  0
   -2.8219  -16.9915   19.6065 H   0  0  0  0  0  0  0  0  0  0  0  0
   -2.2876  -14.9317   19.4892 H   0  0  0  0  0  0  0  0  0  0  0  0
   -6.2674  -17.4771   19.8506 H   0  0  0  0  0  0  0  0  0  0  0  0
   -6.5247  -19.7586   19.3959 H   0  0  0  0  0  0  0  0  0  0  0  0
   -6.1610  -22.2425   20.3161 H   0  0  0  0  0  0  0  0  0  0  0  0
   -9.6682  -21.6752   21.4437 H   0  0  0  0  0  0  0  0  0  0  0  0
  -10.5992  -22.7319   22.8637 H   0  0  0  0  0  0  0  0  0  0  0  0
   -9.0938  -22.9875   23.8628 H   0  0  0  0  0  0  0  0  0  0  0  0
  -11.0949  -22.2939   25.5148 H   0  0  0  0  0  0  0  0  0  0  0  0
  -11.8612  -23.0716   24.3058 H   0  0  0  0  0  0  0  0  0  0  0  0
  -12.6361  -21.5220   23.1954 H   0  0  0  0  0  0  0  0  0  0  0  0
  -12.1975  -20.3960   24.4806 H   0  0  0  0  0  0  0  0  0  0  0  0
  -11.3205  -20.3077   21.9314 H   0  0  0  0  0  0  0  0  0  0  0  0
  -10.4134  -19.6421   23.4064 H   0  0  0  0  0  0  0  0  0  0  0  0
    2.4039  -13.1683   21.3364 H   0  0  0  0  0  0  0  0  0  0  0  0
    2.5232  -10.5713   20.6896 H   0  0  0  0  0  0  0  0  0  0  0  0
    0.4440  -10.0568   21.9711 H   0  0  0  0  0  0  0  0  0  0  0  0
  1  2  2  0
  2  3  1  0
  3  4  1  0
  4  5  1  0
  5  6  1  0
  6  7  1  0
  5  8  1  0
  8  9  1  0
  9 10  2  0
  9 11  1  0
 11 12  2  0
 12 13  1  0
 13 14  2  0
 14 15  1  0
 15 16  1  0
 16 17  1  0
 17 18  1  0
 18 19  1  0
 19 20  1  0
  2 21  1  0
 21 22  1  0
 22 23  2  0
 23 24  1  0
 24 25  1  0
 15 11  1  0
 20 16  1  0
 25 21  2  0
  3 26  1  0
  4 27  1  0
  4 28  1  0
  5 29  1  0
  6 30  1  0
  6 31  1  0
  7 32  1  0
  8 33  1  0
 12 34  1  0
 13 35  1  0
 16 36  1  0
 17 37  1  0
 17 38  1  0
 18 39  1  0
 18 40  1  0
 19 41  1  0
 19 42  1  0
 20 43  1  0
 20 44  1  0
 22 45  1  0
 23 46  1  0
 24 47  1  0
M  END
>  <Energy>  (841) 
663.48789230067996

>  <compound_id>  (841) 
18701

>  <target_id>  (841) 
1

>  <reference_id>  (841) 
96

>  <inspiration_ids>  (841) 
[96, 81]

>  <energy_score>  (841) 
587.3740395359769

>  <distance_score>  (841) 
13.33679894699833

>  <path>  (841) 
/opt/xchem-fragalysis-2/maxwin/BulkDock/SCRATCH/511023/C18701-P96/C18701-P96.minimised.mol

>  <scratch_subdir>  (841) 
/opt/xchem-fragalysis-2/maxwin/BulkDock/SCRATCH/511023/C18701-P96

>  <fragmenstein_runtime>  (841) 
23.72493028640747

>  <fragmenstein_outcome>  (841) 
too moved

>  <fragmenstein_mode>  (841) 
expansion

>  <fragmenstein_error>  (841) 


$$$$
C18701-P81
     RDKit          3D

 47 49  0  0  0  0  0  0  0  0999 V2000
    3.3327  -18.9920   22.3751 O   0  0  0  0  0  0  0  0  0  0  0  0
    2.8646  -19.8070   21.6588 C   0  0  0  0  0  0  0  0  0  0  0  0
    1.5718  -19.8058   20.8458 N   0  0  0  0  0  0  0  0  0  0  0  0
    0.1210  -18.3675   20.5027 C   0  0  0  0  0  0  0  0  0  0  0  0
   -1.6980  -18.7687   19.3389 C   0  0  0  0  0  0  0  0  0  0  0  0
   -1.9310  -19.3536   17.8553 C   0  0  0  0  0  0  0  0  0  0  0  0
   -0.9580  -19.5654   16.8751 O   0  0  0  0  0  0  0  0  0  0  0  0
   -3.1991  -19.9865   19.9442 N   0  0  0  0  0  0  0  0  0  0  0  0
   -3.2926  -21.2358   21.3052 C   0  0  0  0  0  0  0  0  0  0  0  0
   -2.3329  -21.5400   21.9815 O   0  0  0  0  0  0  0  0  0  0  0  0
   -4.8602  -22.0943   21.9851 C   0  0  0  0  0  0  0  0  0  0  0  0
   -4.4305  -22.0142   23.4186 C   0  0  0  0  0  0  0  0  0  0  0  0
   -4.3271  -23.3024   23.9868 C   0  0  0  0  0  0  0  0  0  0  0  0
   -5.1498  -24.1598   23.4181 N   0  0  0  0  0  0  0  0  0  0  0  0
   -5.9879  -23.3182   22.8000 N   0  0  0  0  0  0  0  0  0  0  0  0
   -7.8650  -23.5243   23.1511 C   0  0  0  0  0  0  0  0  0  0  0  0
   -9.3169  -24.3981   24.1458 C   0  0  0  0  0  0  0  0  0  0  0  0
  -10.7337  -23.7240   24.0606 C   0  0  0  0  0  0  0  0  0  0  0  0
  -10.6678  -22.5156   23.0919 C   0  0  0  0  0  0  0  0  0  0  0  0
   -9.1712  -22.3737   22.5915 C   0  0  0  0  0  0  0  0  0  0  0  0
    3.7686  -20.9839   21.4518 C   0  0  0  0  0  0  0  0  0  0  0  0
    3.8349  -21.8521   20.3257 C   0  0  0  0  0  0  0  0  0  0  0  0
    5.1621  -22.2122   20.2158 C   0  0  0  0  0  0  0  0  0  0  0  0
    5.8013  -21.5881   21.2393 N   0  0  0  0  0  0  0  0  0  0  0  0
    4.9685  -20.9980   22.0877 N   0  0  0  0  0  0  0  0  0  0  0  0
    1.4425  -20.7266   20.4105 H   0  0  0  0  0  0  0  0  0  0  0  0
    0.3875  -17.3586   20.1807 H   0  0  0  0  0  0  0  0  0  0  0  0
   -0.2812  -18.2261   21.5077 H   0  0  0  0  0  0  0  0  0  0  0  0
   -2.2200  -17.8046   19.4485 H   0  0  0  0  0  0  0  0  0  0  0  0
   -2.7711  -18.8125   17.4092 H   0  0  0  0  0  0  0  0  0  0  0  0
   -2.3466  -20.3637   17.9599 H   0  0  0  0  0  0  0  0  0  0  0  0
   -0.2604  -20.1264   17.2624 H   0  0  0  0  0  0  0  0  0  0  0  0
   -4.1326  -19.8306   19.5726 H   0  0  0  0  0  0  0  0  0  0  0  0
   -3.7926  -21.2161   23.7792 H   0  0  0  0  0  0  0  0  0  0  0  0
   -3.6867  -23.6229   24.7961 H   0  0  0  0  0  0  0  0  0  0  0  0
   -7.4375  -23.5512   24.1469 H   0  0  0  0  0  0  0  0  0  0  0  0
   -9.4844  -25.4396   24.2154 H   0  0  0  0  0  0  0  0  0  0  0  0
   -9.2556  -24.3879   25.2490 H   0  0  0  0  0  0  0  0  0  0  0  0
  -11.1386  -23.4771   25.0584 H   0  0  0  0  0  0  0  0  0  0  0  0
  -11.4634  -24.4996   23.9445 H   0  0  0  0  0  0  0  0  0  0  0  0
  -11.0326  -21.5468   23.4688 H   0  0  0  0  0  0  0  0  0  0  0  0
  -11.4145  -22.5767   22.2917 H   0  0  0  0  0  0  0  0  0  0  0  0
   -9.4091  -22.4580   21.5491 H   0  0  0  0  0  0  0  0  0  0  0  0
   -8.8510  -21.3615   22.4240 H   0  0  0  0  0  0  0  0  0  0  0  0
    3.0790  -22.0532   19.5835 H   0  0  0  0  0  0  0  0  0  0  0  0
    5.6950  -22.8003   19.4842 H   0  0  0  0  0  0  0  0  0  0  0  0
    6.7886  -21.5886   21.4677 H   0  0  0  0  0  0  0  0  0  0  0  0
  1  2  2  0
  2  3  1  0
  3  4  1  0
  4  5  1  0
  5  6  1  0
  6  7  1  0
  5  8  1  0
  8  9  1  0
  9 10  2  0
  9 11  1  0
 11 12  2  0
 12 13  1  0
 13 14  2  0
 14 15  1  0
 15 16  1  0
 16 17  1  0
 17 18  1  0
 18 19  1  0
 19 20  1  0
  2 21  1  0
 21 22  1  0
 22 23  2  0
 23 24  1  0
 24 25  1  0
 15 11  1  0
 20 16  1  0
 25 21  2  0
  3 26  1  0
  4 27  1  0
  4 28  1  0
  5 29  1  0
  6 30  1  0
  6 31  1  0
  7 32  1  0
  8 33  1  0
 12 34  1  0
 13 35  1  0
 16 36  1  0
 17 37  1  0
 17 38  1  0
 18 39  1  0
 18 40  1  0
 19 41  1  0
 19 42  1  0
 20 43  1  0
 20 44  1  0
 22 45  1  0
 23 46  1  0
 24 47  1  0
M  END
>  <Energy>  (842) 
952.29852989746303

>  <compound_id>  (842) 
18701

>  <target_id>  (842) 
1

>  <reference_id>  (842) 
81

>  <inspiration_ids>  (842) 
[96, 81]

>  <energy_score>  (842) 
876.1846771327774

>  <distance_score>  (842) 
16.110698603366384

>  <path>  (842) 
/opt/xchem-fragalysis-2/maxwin/BulkDock/SCRATCH/511023/C18701-P81/C18701-P81.minimised.mol

>  <scratch_subdir>  (842) 
/opt/xchem-fragalysis-2/maxwin/BulkDock/SCRATCH/511023/C18701-P81

>  <fragmenstein_runtime>  (842) 
53.420414447784424

>  <fragmenstein_outcome>  (842) 
too moved

>  <fragmenstein_mode>  (842) 
expansion

>  <fragmenstein_error>  (842) 


$$$$
C46487-P96
     RDKit          3D

 43 46  0  0  0  0  0  0  0  0999 V2000
    0.4239  -10.0970   20.4820 O   0  0  0  0  0  0  0  0  0  0  0  0
    1.4749  -10.4056   21.0036 C   0  0  0  0  0  0  0  0  0  0  0  0
    3.1094   -9.8708   20.6789 N   0  0  0  0  0  0  0  0  0  0  0  0
    3.8587   -8.5356   19.6093 C   0  0  0  0  0  0  0  0  0  0  0  0
    4.8292   -9.5659   18.5874 C   0  0  0  0  0  0  0  0  0  0  0  0
    5.7226   -8.6686   17.3939 C   0  0  0  0  0  0  0  0  0  0  0  0
    5.0117   -6.8279   17.2478 N   0  0  0  0  0  0  0  0  0  0  0  0
    3.9074   -6.4313   18.8731 N   0  0  0  0  0  0  0  0  0  0  0  0
    5.6300   -5.8495   17.8444 C   0  0  0  0  0  0  0  0  0  0  0  0
    7.3016   -5.9721   16.5441 C   0  0  0  0  0  0  0  0  0  0  0  0
    9.0950   -5.9353   17.5654 C   0  0  0  0  0  0  0  0  0  0  0  0
    9.1952   -7.3556   17.4743 C   0  0  0  0  0  0  0  0  0  0  0  0
    7.8027   -6.5502   17.5432 C   0  0  0  0  0  0  0  0  0  0  0  0
    1.1459  -11.4920   22.5148 C   0  0  0  0  0  0  0  0  0  0  0  0
   -0.0561  -12.5465   22.6864 N   0  0  0  0  0  0  0  0  0  0  0  0
   -0.8003  -12.9618   23.8183 N   0  0  0  0  0  0  0  0  0  0  0  0
   -0.1770  -12.4157   24.8094 C   0  0  0  0  0  0  0  0  0  0  0  0
    0.5923  -11.2796   24.2317 C   0  0  0  0  0  0  0  0  0  0  0  0
    0.1457  -10.1014   25.2424 C   0  0  0  0  0  0  0  0  0  0  0  0
    0.0461  -10.5081   26.7474 C   0  0  0  0  0  0  0  0  0  0  0  0
   -1.0064  -11.5843   26.9890 C   0  0  0  0  0  0  0  0  0  0  0  0
   -0.6081  -12.7975   26.1893 C   0  0  0  0  0  0  0  0  0  0  0  0
    3.7183  -10.2554   21.3407 H   0  0  0  0  0  0  0  0  0  0  0  0
    4.7998  -10.6489   18.5576 H   0  0  0  0  0  0  0  0  0  0  0  0
    6.3697   -9.0139   16.5799 H   0  0  0  0  0  0  0  0  0  0  0  0
    5.4809   -5.0158   18.6723 H   0  0  0  0  0  0  0  0  0  0  0  0
    6.8218   -6.5378   15.7570 H   0  0  0  0  0  0  0  0  0  0  0  0
    7.4505   -5.0599   15.9397 H   0  0  0  0  0  0  0  0  0  0  0  0
    9.9932   -5.2818   17.3989 H   0  0  0  0  0  0  0  0  0  0  0  0
    9.2668   -5.6927   18.6635 H   0  0  0  0  0  0  0  0  0  0  0  0
    9.3871   -7.9434   16.5683 H   0  0  0  0  0  0  0  0  0  0  0  0
    9.8639   -7.6723   18.2969 H   0  0  0  0  0  0  0  0  0  0  0  0
    7.6666   -7.7120   16.9697 H   0  0  0  0  0  0  0  0  0  0  0  0
    8.2770   -6.8597   18.7880 H   0  0  0  0  0  0  0  0  0  0  0  0
   -0.7354  -12.5423   21.9431 H   0  0  0  0  0  0  0  0  0  0  0  0
    0.7275   -9.1885   25.2378 H   0  0  0  0  0  0  0  0  0  0  0  0
   -0.8722   -9.8107   24.9529 H   0  0  0  0  0  0  0  0  0  0  0  0
   -0.2211   -9.6190   27.3313 H   0  0  0  0  0  0  0  0  0  0  0  0
    1.0281  -10.8445   27.1029 H   0  0  0  0  0  0  0  0  0  0  0  0
   -1.9897  -11.2185   26.6692 H   0  0  0  0  0  0  0  0  0  0  0  0
   -1.0761  -11.8284   28.0542 H   0  0  0  0  0  0  0  0  0  0  0  0
   -1.4369  -13.5154   26.1684 H   0  0  0  0  0  0  0  0  0  0  0  0
    0.2303  -13.3038   26.6834 H   0  0  0  0  0  0  0  0  0  0  0  0
  1  2  2  0
  2  3  1  0
  3  4  1  0
  4  5  2  0
  5  6  1  0
  6  7  2  0
  7  8  1  0
  8  9  1  0
  9 10  1  0
 10 11  1  0
 11 12  1  0
 12 13  1  0
  2 14  1  0
 14 15  1  0
 15 16  1  0
 16 17  2  0
 17 18  1  0
 18 19  1  0
 19 20  1  0
 20 21  1  0
 21 22  1  0
  8  4  1  0
 13  9  1  0
 18 14  2  0
 22 17  1  0
  3 23  1  0
  5 24  1  0
  6 25  1  0
  9 26  1  0
 10 27  1  0
 10 28  1  0
 11 29  1  0
 11 30  1  0
 12 31  1  0
 12 32  1  0
 13 33  1  0
 13 34  1  0
 15 35  1  0
 19 36  1  0
 19 37  1  0
 20 38  1  0
 20 39  1  0
 21 40  1  0
 21 41  1  0
 22 42  1  0
 22 43  1  0
M  END
>  <Energy>  (843) 
2323.7707350775809

>  <compound_id>  (843) 
46487

>  <target_id>  (843) 
1

>  <reference_id>  (843) 
96

>  <inspiration_ids>  (843) 
[96, 81]

>  <energy_score>  (843) 
2258.9325082115915

>  <distance_score>  (843) 
15.257574463955297

>  <path>  (843) 
/opt/xchem-fragalysis-2/maxwin/BulkDock/SCRATCH/511023/C46487-P96/C46487-P96.minimised.mol

>  <scratch_subdir>  (843) 
/opt/xchem-fragalysis-2/maxwin/BulkDock/SCRATCH/511023/C46487-P96

>  <fragmenstein_runtime>  (843) 
18.070796489715576

>  <fragmenstein_outcome>  (843) 
too moved

>  <fragmenstein_mode>  (843) 
expansion

>  <fragmenstein_error>  (843) 


$$$$
C46487-P81
     RDKit          3D

 43 46  0  0  0  0  0  0  0  0999 V2000
   -1.9187   -8.3973   23.2075 O   0  0  0  0  0  0  0  0  0  0  0  0
   -1.5164   -9.3652   22.6190 C   0  0  0  0  0  0  0  0  0  0  0  0
   -0.4775   -9.4848   21.5596 N   0  0  0  0  0  0  0  0  0  0  0  0
    0.2810   -8.4688   20.8618 C   0  0  0  0  0  0  0  0  0  0  0  0
   -0.2048   -7.1649   20.8743 C   0  0  0  0  0  0  0  0  0  0  0  0
   -0.7495   -7.1634   19.5689 C   0  0  0  0  0  0  0  0  0  0  0  0
   -0.1231   -8.0179   18.7385 N   0  0  0  0  0  0  0  0  0  0  0  0
    1.0160   -8.3620   19.4797 N   0  0  0  0  0  0  0  0  0  0  0  0
    2.4133   -9.0045   18.8045 C   0  0  0  0  0  0  0  0  0  0  0  0
    4.2625   -8.9546   18.4602 C   0  0  0  0  0  0  0  0  0  0  0  0
    5.2012   -7.5709   18.3982 C   0  0  0  0  0  0  0  0  0  0  0  0
    4.4408   -6.8795   17.5300 C   0  0  0  0  0  0  0  0  0  0  0  0
    2.7896   -8.1051   17.7862 C   0  0  0  0  0  0  0  0  0  0  0  0
   -2.1704  -10.6475   23.2051 C   0  0  0  0  0  0  0  0  0  0  0  0
   -2.6277  -10.4393   24.5195 N   0  0  0  0  0  0  0  0  0  0  0  0
   -3.0984  -11.4899   25.1995 N   0  0  0  0  0  0  0  0  0  0  0  0
   -3.1822  -12.4267   24.2682 C   0  0  0  0  0  0  0  0  0  0  0  0
   -2.6712  -11.9596   22.9923 C   0  0  0  0  0  0  0  0  0  0  0  0
   -2.8715  -12.8592   21.8188 C   0  0  0  0  0  0  0  0  0  0  0  0
   -3.0828  -14.3460   22.2275 C   0  0  0  0  0  0  0  0  0  0  0  0
   -4.1506  -14.5233   23.3184 C   0  0  0  0  0  0  0  0  0  0  0  0
   -3.7450  -13.7802   24.5881 C   0  0  0  0  0  0  0  0  0  0  0  0
   -0.4508  -10.4342   21.2294 H   0  0  0  0  0  0  0  0  0  0  0  0
   -0.6827   -6.6555   21.7000 H   0  0  0  0  0  0  0  0  0  0  0  0
   -1.5740   -6.5753   19.1879 H   0  0  0  0  0  0  0  0  0  0  0  0
    2.0477   -9.7724   18.1836 H   0  0  0  0  0  0  0  0  0  0  0  0
    5.0554   -9.5805   18.7340 H   0  0  0  0  0  0  0  0  0  0  0  0
    4.0985   -9.6692   17.6206 H   0  0  0  0  0  0  0  0  0  0  0  0
    6.1277   -7.1118   18.0018 H   0  0  0  0  0  0  0  0  0  0  0  0
    5.4896   -7.5549   19.3889 H   0  0  0  0  0  0  0  0  0  0  0  0
    4.6778   -5.8641   17.9956 H   0  0  0  0  0  0  0  0  0  0  0  0
    4.6423   -6.5374   16.5082 H   0  0  0  0  0  0  0  0  0  0  0  0
    1.7354   -7.9210   17.5173 H   0  0  0  0  0  0  0  0  0  0  0  0
    2.8387   -8.7154   16.8972 H   0  0  0  0  0  0  0  0  0  0  0  0
   -2.5851   -9.5410   24.9903 H   0  0  0  0  0  0  0  0  0  0  0  0
   -2.0422  -12.7757   21.1206 H   0  0  0  0  0  0  0  0  0  0  0  0
   -3.7650  -12.5182   21.2799 H   0  0  0  0  0  0  0  0  0  0  0  0
   -3.3688  -14.9193   21.3382 H   0  0  0  0  0  0  0  0  0  0  0  0
   -2.1308  -14.7606   22.5837 H   0  0  0  0  0  0  0  0  0  0  0  0
   -4.2984  -15.5864   23.5377 H   0  0  0  0  0  0  0  0  0  0  0  0
   -5.1064  -14.1318   22.9484 H   0  0  0  0  0  0  0  0  0  0  0  0
   -2.9765  -14.3557   25.1188 H   0  0  0  0  0  0  0  0  0  0  0  0
   -4.6087  -13.6915   25.2568 H   0  0  0  0  0  0  0  0  0  0  0  0
  1  2  2  0
  2  3  1  0
  3  4  1  0
  4  5  2  0
  5  6  1  0
  6  7  2  0
  7  8  1  0
  8  9  1  0
  9 10  1  0
 10 11  1  0
 11 12  1  0
 12 13  1  0
  2 14  1  0
 14 15  1  0
 15 16  1  0
 16 17  2  0
 17 18  1  0
 18 19  1  0
 19 20  1  0
 20 21  1  0
 21 22  1  0
  8  4  1  0
 13  9  1  0
 18 14  2  0
 22 17  1  0
  3 23  1  0
  5 24  1  0
  6 25  1  0
  9 26  1  0
 10 27  1  0
 10 28  1  0
 11 29  1  0
 11 30  1  0
 12 31  1  0
 12 32  1  0
 13 33  1  0
 13 34  1  0
 15 35  1  0
 19 36  1  0
 19 37  1  0
 20 38  1  0
 20 39  1  0
 21 40  1  0
 21 41  1  0
 22 42  1  0
 22 43  1  0
M  END
>  <Energy>  (844) 
492.05658873583377

>  <compound_id>  (844) 
46487

>  <target_id>  (844) 
1

>  <reference_id>  (844) 
81

>  <inspiration_ids>  (844) 
[96, 81]

>  <energy_score>  (844) 
427.21836186983785

>  <distance_score>  (844) 
15.437421330252898

>  <path>  (844) 
/opt/xchem-fragalysis-2/maxwin/BulkDock/SCRATCH/511023/C46487-P81/C46487-P81.minimised.mol

>  <scratch_subdir>  (844) 
/opt/xchem-fragalysis-2/maxwin/BulkDock/SCRATCH/511023/C46487-P81

>  <fragmenstein_runtime>  (844) 
53.829713344573975

>  <fragmenstein_outcome>  (844) 
too moved

>  <fragmenstein_mode>  (844) 
expansion

>  <fragmenstein_error>  (844) 


$$$$
C18702-P96
     RDKit          3D

 33 35  0  0  0  0  0  0  0  0999 V2000
    5.2232   -9.2079   16.7612 O   0  0  0  0  0  0  0  0  0  0  0  0
    5.8506   -9.9766   17.3960 C   0  0  0  0  0  0  0  0  0  0  0  0
    7.5656  -10.1921   17.4608 N   0  0  0  0  0  0  0  0  0  0  0  0
    8.5904   -9.5723   16.7093 C   0  0  0  0  0  0  0  0  0  0  0  0
    8.5131   -9.2899   15.3632 C   0  0  0  0  0  0  0  0  0  0  0  0
    9.8177   -9.4598   14.9222 C   0  0  0  0  0  0  0  0  0  0  0  0
   10.6931   -9.3017   15.9181 N   0  0  0  0  0  0  0  0  0  0  0  0
    9.9364   -9.4449   17.0235 N   0  0  0  0  0  0  0  0  0  0  0  0
   10.5758   -9.7559   18.2971 C   0  0  0  0  0  0  0  0  0  0  0  0
   11.3007   -8.5682   18.9267 C   0  0  0  0  0  0  0  0  0  0  0  0
   12.7087   -8.6128   18.3459 C   0  0  0  0  0  0  0  0  0  0  0  0
   12.9815  -10.0776   18.0106 C   0  0  0  0  0  0  0  0  0  0  0  0
   11.6655  -10.8289   18.2120 C   0  0  0  0  0  0  0  0  0  0  0  0
    4.9597  -10.8805   18.1019 C   0  0  0  0  0  0  0  0  0  0  0  0
    3.8541  -10.5590   18.8500 C   0  0  0  0  0  0  0  0  0  0  0  0
    3.0388  -11.6148   18.8133 C   0  0  0  0  0  0  0  0  0  0  0  0
    3.3106  -12.0304   17.5585 N   0  0  0  0  0  0  0  0  0  0  0  0
    4.6197  -12.0318   17.5387 N   0  0  0  0  0  0  0  0  0  0  0  0
    7.8004  -10.8818   18.1661 H   0  0  0  0  0  0  0  0  0  0  0  0
    7.6235   -9.3027   14.7484 H   0  0  0  0  0  0  0  0  0  0  0  0
   10.1694   -9.5856   13.9010 H   0  0  0  0  0  0  0  0  0  0  0  0
    9.7846  -10.1057   18.9684 H   0  0  0  0  0  0  0  0  0  0  0  0
   11.3594   -8.7133   20.0128 H   0  0  0  0  0  0  0  0  0  0  0  0
   10.8084   -7.6076   18.7487 H   0  0  0  0  0  0  0  0  0  0  0  0
   12.7678   -8.0064   17.4355 H   0  0  0  0  0  0  0  0  0  0  0  0
   13.4464   -8.2115   19.0480 H   0  0  0  0  0  0  0  0  0  0  0  0
   13.7644  -10.4932   18.6541 H   0  0  0  0  0  0  0  0  0  0  0  0
   13.3315  -10.1707   16.9765 H   0  0  0  0  0  0  0  0  0  0  0  0
   11.7133  -11.3702   19.1655 H   0  0  0  0  0  0  0  0  0  0  0  0
   11.4903  -11.5711   17.4263 H   0  0  0  0  0  0  0  0  0  0  0  0
    3.7169   -9.6700   19.4463 H   0  0  0  0  0  0  0  0  0  0  0  0
    2.3242  -12.0571   19.4289 H   0  0  0  0  0  0  0  0  0  0  0  0
    2.8688  -12.7982   17.0634 H   0  0  0  0  0  0  0  0  0  0  0  0
  1  2  2  0
  2  3  1  0
  3  4  1  0
  4  5  2  0
  5  6  1  0
  6  7  2  0
  7  8  1  0
  8  9  1  0
  9 10  1  0
 10 11  1  0
 11 12  1  0
 12 13  1  0
  2 14  1  0
 14 15  1  0
 15 16  2  0
 16 17  1  0
 17 18  1  0
  8  4  1  0
 13  9  1  0
 18 14  2  0
  3 19  1  0
  5 20  1  0
  6 21  1  0
  9 22  1  0
 10 23  1  0
 10 24  1  0
 11 25  1  0
 11 26  1  0
 12 27  1  0
 12 28  1  0
 13 29  1  0
 13 30  1  0
 15 31  1  0
 16 32  1  0
 17 33  1  0
M  END
>  <Energy>  (845) 
176.59114287506279

>  <compound_id>  (845) 
18702

>  <target_id>  (845) 
1

>  <reference_id>  (845) 
96

>  <inspiration_ids>  (845) 
[96, 81]

>  <energy_score>  (845) 
58.28391701801047

>  <distance_score>  (845) 
17.16121674087234

>  <path>  (845) 
/opt/xchem-fragalysis-2/maxwin/BulkDock/SCRATCH/511023/C18702-P96/C18702-P96.minimised.mol

>  <scratch_subdir>  (845) 
/opt/xchem-fragalysis-2/maxwin/BulkDock/SCRATCH/511023/C18702-P96

>  <fragmenstein_runtime>  (845) 
12.174116611480713

>  <fragmenstein_outcome>  (845) 
too moved

>  <fragmenstein_mode>  (845) 
expansion

>  <fragmenstein_error>  (845) 


$$$$
C18702-P81
     RDKit          3D

 33 35  0  0  0  0  0  0  0  0999 V2000
   -2.5501  -12.6474   21.8421 O   0  0  0  0  0  0  0  0  0  0  0  0
   -2.6749  -12.0939   22.8910 C   0  0  0  0  0  0  0  0  0  0  0  0
   -2.1597  -10.6021   23.3742 N   0  0  0  0  0  0  0  0  0  0  0  0
   -1.2756   -9.5419   22.6257 C   0  0  0  0  0  0  0  0  0  0  0  0
   -0.8732   -9.4772   21.2802 C   0  0  0  0  0  0  0  0  0  0  0  0
   -0.0260   -8.3552   21.0118 C   0  0  0  0  0  0  0  0  0  0  0  0
    0.1675   -7.6490   22.1133 N   0  0  0  0  0  0  0  0  0  0  0  0
   -0.6615   -8.2811   23.0379 N   0  0  0  0  0  0  0  0  0  0  0  0
   -0.8767   -7.5610   24.2815 C   0  0  0  0  0  0  0  0  0  0  0  0
   -1.8760   -8.1269   25.2877 C   0  0  0  0  0  0  0  0  0  0  0  0
   -2.0712   -6.9730   26.2595 C   0  0  0  0  0  0  0  0  0  0  0  0
   -2.0651   -5.7257   25.3833 C   0  0  0  0  0  0  0  0  0  0  0  0
   -1.4079   -6.1346   24.0645 C   0  0  0  0  0  0  0  0  0  0  0  0
   -3.5513  -13.1174   24.0056 C   0  0  0  0  0  0  0  0  0  0  0  0
   -3.7379  -14.6198   23.8298 C   0  0  0  0  0  0  0  0  0  0  0  0
   -4.5925  -15.1158   24.8020 C   0  0  0  0  0  0  0  0  0  0  0  0
   -4.9455  -14.0095   25.5032 N   0  0  0  0  0  0  0  0  0  0  0  0
   -4.3537  -12.8268   25.0773 N   0  0  0  0  0  0  0  0  0  0  0  0
   -2.3607  -10.4733   24.3572 H   0  0  0  0  0  0  0  0  0  0  0  0
   -1.2699  -10.1897   20.5728 H   0  0  0  0  0  0  0  0  0  0  0  0
    0.3758   -8.0399   20.0604 H   0  0  0  0  0  0  0  0  0  0  0  0
    0.1091   -7.4969   24.7617 H   0  0  0  0  0  0  0  0  0  0  0  0
   -2.8348   -8.3633   24.8117 H   0  0  0  0  0  0  0  0  0  0  0  0
   -1.5024   -9.0210   25.7954 H   0  0  0  0  0  0  0  0  0  0  0  0
   -2.9942   -7.0686   26.8388 H   0  0  0  0  0  0  0  0  0  0  0  0
   -1.2340   -6.9337   26.9668 H   0  0  0  0  0  0  0  0  0  0  0  0
   -1.5197   -4.9101   25.8695 H   0  0  0  0  0  0  0  0  0  0  0  0
   -3.0864   -5.3735   25.2000 H   0  0  0  0  0  0  0  0  0  0  0  0
   -2.1528   -6.1097   23.2590 H   0  0  0  0  0  0  0  0  0  0  0  0
   -0.6067   -5.4411   23.7862 H   0  0  0  0  0  0  0  0  0  0  0  0
   -3.2620  -15.1799   23.0341 H   0  0  0  0  0  0  0  0  0  0  0  0
   -4.9705  -16.1043   25.0173 H   0  0  0  0  0  0  0  0  0  0  0  0
   -5.5784  -13.9510   26.2935 H   0  0  0  0  0  0  0  0  0  0  0  0
  1  2  2  0
  2  3  1  0
  3  4  1  0
  4  5  2  0
  5  6  1  0
  6  7  2  0
  7  8  1  0
  8  9  1  0
  9 10  1  0
 10 11  1  0
 11 12  1  0
 12 13  1  0
  2 14  1  0
 14 15  1  0
 15 16  2  0
 16 17  1  0
 17 18  1  0
  8  4  1  0
 13  9  1  0
 18 14  2  0
  3 19  1  0
  5 20  1  0
  6 21  1  0
  9 22  1  0
 10 23  1  0
 10 24  1  0
 11 25  1  0
 11 26  1  0
 12 27  1  0
 12 28  1  0
 13 29  1  0
 13 30  1  0
 15 31  1  0
 16 32  1  0
 17 33  1  0
M  END
>  <Energy>  (846) 
156.19796466931672

>  <compound_id>  (846) 
18702

>  <target_id>  (846) 
1

>  <reference_id>  (846) 
81

>  <inspiration_ids>  (846) 
[96, 81]

>  <energy_score>  (846) 
37.89073881225772

>  <distance_score>  (846) 
14.289953999066508

>  <path>  (846) 
/opt/xchem-fragalysis-2/maxwin/BulkDock/SCRATCH/511023/C18702-P81/C18702-P81.minimised.mol

>  <scratch_subdir>  (846) 
/opt/xchem-fragalysis-2/maxwin/BulkDock/SCRATCH/511023/C18702-P81

>  <fragmenstein_runtime>  (846) 
12.708329439163208

>  <fragmenstein_outcome>  (846) 
too moved

>  <fragmenstein_mode>  (846) 
expansion

>  <fragmenstein_error>  (846) 


$$$$
C28371-P96
     RDKit          3D

 49 51  0  0  0  0  0  0  0  0999 V2000
    3.2234   -9.5971   19.9194 C   0  0  0  0  0  0  0  0  0  0  0  0
    3.3284  -10.8853   19.1789 C   0  0  0  0  0  0  0  0  0  0  0  0
    4.5054   -9.8215   17.6373 C   0  0  0  0  0  0  0  0  0  0  0  0
    6.0193   -8.4762   17.1526 N   0  0  0  0  0  0  0  0  0  0  0  0
    6.0516   -6.5185   16.4885 C   0  0  0  0  0  0  0  0  0  0  0  0
    5.1392   -5.7756   16.1286 O   0  0  0  0  0  0  0  0  0  0  0  0
    7.9065   -5.9248   16.7271 C   0  0  0  0  0  0  0  0  0  0  0  0
    8.5093   -4.0340   16.8110 C   0  0  0  0  0  0  0  0  0  0  0  0
    9.9088   -3.8118   17.0042 N   0  0  0  0  0  0  0  0  0  0  0  0
   10.3051   -4.9940   17.6888 N   0  0  0  0  0  0  0  0  0  0  0  0
    9.2732   -6.1061   17.6915 C   0  0  0  0  0  0  0  0  0  0  0  0
    2.3699  -11.8008   20.9737 C   0  0  0  0  0  0  0  0  0  0  0  0
    0.7331  -12.6438   21.7427 N   0  0  0  0  0  0  0  0  0  0  0  0
   -0.0444  -12.4010   23.1260 C   0  0  0  0  0  0  0  0  0  0  0  0
    0.3146  -11.6659   24.0833 O   0  0  0  0  0  0  0  0  0  0  0  0
   -1.8214  -13.1025   23.4364 C   0  0  0  0  0  0  0  0  0  0  0  0
   -2.7584  -12.3800   24.2853 C   0  0  0  0  0  0  0  0  0  0  0  0
   -3.0603  -13.0703   25.4736 C   0  0  0  0  0  0  0  0  0  0  0  0
   -3.1948  -14.3382   25.0415 N   0  0  0  0  0  0  0  0  0  0  0  0
   -3.5606  -15.4360   25.9468 C   0  0  0  0  0  0  0  0  0  0  0  0
   -2.6130  -16.6400   25.9427 C   0  0  0  0  0  0  0  0  0  0  0  0
   -1.7025  -16.5300   27.1700 C   0  0  0  0  0  0  0  0  0  0  0  0
   -2.1674  -15.3087   27.9426 C   0  0  0  0  0  0  0  0  0  0  0  0
   -3.5905  -15.1056   27.4659 C   0  0  0  0  0  0  0  0  0  0  0  0
   -2.7499  -14.2792   23.4982 N   0  0  0  0  0  0  0  0  0  0  0  0
    3.0065  -10.1665   20.7131 H   0  0  0  0  0  0  0  0  0  0  0  0
    2.3730   -9.1146   20.3566 H   0  0  0  0  0  0  0  0  0  0  0  0
    4.1267   -9.0361   20.1415 H   0  0  0  0  0  0  0  0  0  0  0  0
    2.8864  -11.5325   18.4541 H   0  0  0  0  0  0  0  0  0  0  0  0
    5.3076  -10.4354   18.0748 H   0  0  0  0  0  0  0  0  0  0  0  0
    4.4661  -10.4103   16.7262 H   0  0  0  0  0  0  0  0  0  0  0  0
    6.9037   -8.8305   17.2831 H   0  0  0  0  0  0  0  0  0  0  0  0
    7.9354   -3.6094   16.0770 H   0  0  0  0  0  0  0  0  0  0  0  0
   11.1908   -4.9938   18.1867 H   0  0  0  0  0  0  0  0  0  0  0  0
    9.6210   -6.8113   18.4382 H   0  0  0  0  0  0  0  0  0  0  0  0
    2.7997  -12.7803   21.3302 H   0  0  0  0  0  0  0  0  0  0  0  0
    2.3437  -11.1095   21.8193 H   0  0  0  0  0  0  0  0  0  0  0  0
    0.1410  -13.2315   21.1248 H   0  0  0  0  0  0  0  0  0  0  0  0
   -3.0473  -11.3629   24.0554 H   0  0  0  0  0  0  0  0  0  0  0  0
   -3.4802  -12.7473   26.4160 H   0  0  0  0  0  0  0  0  0  0  0  0
   -4.6032  -15.6730   25.7256 H   0  0  0  0  0  0  0  0  0  0  0  0
   -2.0034  -16.7137   25.0513 H   0  0  0  0  0  0  0  0  0  0  0  0
   -3.1964  -17.5662   26.0136 H   0  0  0  0  0  0  0  0  0  0  0  0
   -1.7970  -17.4337   27.7831 H   0  0  0  0  0  0  0  0  0  0  0  0
   -0.6487  -16.4404   26.8868 H   0  0  0  0  0  0  0  0  0  0  0  0
   -1.5511  -14.4378   27.7004 H   0  0  0  0  0  0  0  0  0  0  0  0
   -2.1114  -15.4630   29.0244 H   0  0  0  0  0  0  0  0  0  0  0  0
   -4.2304  -15.8338   27.9734 H   0  0  0  0  0  0  0  0  0  0  0  0
   -3.9938  -14.1292   27.7381 H   0  0  0  0  0  0  0  0  0  0  0  0
  1  2  1  0
  2  3  1  0
  3  4  1  0
  4  5  1  0
  5  6  2  0
  5  7  1  0
  7  8  1  0
  8  9  2  0
  9 10  1  0
 10 11  1  0
  2 12  1  0
 12 13  1  0
 13 14  1  0
 14 15  2  0
 14 16  1  0
 16 17  1  0
 17 18  2  0
 18 19  1  0
 19 20  1  0
 20 21  1  0
 21 22  1  0
 22 23  1  0
 23 24  1  0
 19 25  1  0
 11  7  2  0
 25 16  2  0
 24 20  1  0
  1 26  1  0
  1 27  1  0
  1 28  1  0
  2 29  1  0
  3 30  1  0
  3 31  1  0
  4 32  1  0
  8 33  1  0
 10 34  1  0
 11 35  1  0
 12 36  1  0
 12 37  1  0
 13 38  1  0
 17 39  1  0
 18 40  1  0
 20 41  1  0
 21 42  1  0
 21 43  1  0
 22 44  1  0
 22 45  1  0
 23 46  1  0
 23 47  1  0
 24 48  1  0
 24 49  1  0
M  END
>  <Energy>  (847) 
1282.8649760491555

>  <compound_id>  (847) 
28371

>  <target_id>  (847) 
1

>  <reference_id>  (847) 
96

>  <inspiration_ids>  (847) 
[96, 81]

>  <energy_score>  (847) 
1218.0846182263724

>  <distance_score>  (847) 
11.057579489069944

>  <path>  (847) 
/opt/xchem-fragalysis-2/maxwin/BulkDock/SCRATCH/511023/C28371-P96/C28371-P96.minimised.mol

>  <scratch_subdir>  (847) 
/opt/xchem-fragalysis-2/maxwin/BulkDock/SCRATCH/511023/C28371-P96

>  <fragmenstein_runtime>  (847) 
58.321391105651855

>  <fragmenstein_outcome>  (847) 
too moved

>  <fragmenstein_mode>  (847) 
expansion

>  <fragmenstein_error>  (847) 


$$$$
C28371-P81
     RDKit          3D

 49 51  0  0  0  0  0  0  0  0999 V2000
   -2.2652  -12.8240   20.4038 C   0  0  0  0  0  0  0  0  0  0  0  0
   -2.1772  -14.7351   19.8674 C   0  0  0  0  0  0  0  0  0  0  0  0
   -1.9254  -13.9409   18.0425 C   0  0  0  0  0  0  0  0  0  0  0  0
   -1.9004  -12.3903   18.1813 N   0  0  0  0  0  0  0  0  0  0  0  0
   -2.9619  -11.4428   18.3619 C   0  0  0  0  0  0  0  0  0  0  0  0
   -4.1369  -11.5887   18.3612 O   0  0  0  0  0  0  0  0  0  0  0  0
   -2.4783  -10.1402   18.7020 C   0  0  0  0  0  0  0  0  0  0  0  0
   -1.7437   -9.1456   18.1693 C   0  0  0  0  0  0  0  0  0  0  0  0
   -0.9619   -8.5351   19.0457 N   0  0  0  0  0  0  0  0  0  0  0  0
   -1.3330   -9.0684   20.2240 N   0  0  0  0  0  0  0  0  0  0  0  0
   -2.4383   -9.8133   20.0624 C   0  0  0  0  0  0  0  0  0  0  0  0
   -3.1236  -16.4277   20.3357 C   0  0  0  0  0  0  0  0  0  0  0  0
   -4.1098  -17.4799   21.6137 N   0  0  0  0  0  0  0  0  0  0  0  0
   -4.6980  -17.0913   23.2488 C   0  0  0  0  0  0  0  0  0  0  0  0
   -4.6287  -16.0059   23.7853 O   0  0  0  0  0  0  0  0  0  0  0  0
   -5.3669  -18.3591   24.4576 C   0  0  0  0  0  0  0  0  0  0  0  0
   -4.4567  -19.3359   25.0717 C   0  0  0  0  0  0  0  0  0  0  0  0
   -5.0018  -20.0867   26.1306 C   0  0  0  0  0  0  0  0  0  0  0  0
   -6.5360  -19.7421   26.5170 N   0  0  0  0  0  0  0  0  0  0  0  0
   -7.7513  -21.1997   27.1642 C   0  0  0  0  0  0  0  0  0  0  0  0
   -9.6095  -21.6896   27.8874 C   0  0  0  0  0  0  0  0  0  0  0  0
   -9.9357  -23.2596   27.8295 C   0  0  0  0  0  0  0  0  0  0  0  0
   -8.7846  -23.9429   27.1411 C   0  0  0  0  0  0  0  0  0  0  0  0
   -7.4774  -22.9441   26.7740 C   0  0  0  0  0  0  0  0  0  0  0  0
   -6.4800  -18.3832   25.4347 N   0  0  0  0  0  0  0  0  0  0  0  0
   -3.2465  -12.3338   20.3061 H   0  0  0  0  0  0  0  0  0  0  0  0
   -1.8630  -12.0807   21.0977 H   0  0  0  0  0  0  0  0  0  0  0  0
   -1.4526  -12.3035   19.9421 H   0  0  0  0  0  0  0  0  0  0  0  0
   -1.8119  -14.7096   20.8673 H   0  0  0  0  0  0  0  0  0  0  0  0
   -2.4828  -14.2363   17.1427 H   0  0  0  0  0  0  0  0  0  0  0  0
   -0.9250  -14.0514   17.7390 H   0  0  0  0  0  0  0  0  0  0  0  0
   -1.0218  -11.8996   18.1606 H   0  0  0  0  0  0  0  0  0  0  0  0
   -1.5189   -8.9484   17.1794 H   0  0  0  0  0  0  0  0  0  0  0  0
   -0.7837   -8.8698   21.0557 H   0  0  0  0  0  0  0  0  0  0  0  0
   -2.9140  -10.2589   20.9197 H   0  0  0  0  0  0  0  0  0  0  0  0
   -2.2070  -17.0516   20.3857 H   0  0  0  0  0  0  0  0  0  0  0  0
   -3.4461  -16.8679   19.3695 H   0  0  0  0  0  0  0  0  0  0  0  0
   -4.2169  -18.4739   21.4462 H   0  0  0  0  0  0  0  0  0  0  0  0
   -3.4615  -19.5233   24.6955 H   0  0  0  0  0  0  0  0  0  0  0  0
   -4.6742  -21.0196   26.5543 H   0  0  0  0  0  0  0  0  0  0  0  0
   -6.9095  -21.4261   27.7173 H   0  0  0  0  0  0  0  0  0  0  0  0
  -10.0772  -21.3086   28.8224 H   0  0  0  0  0  0  0  0  0  0  0  0
  -10.4058  -21.3778   27.2022 H   0  0  0  0  0  0  0  0  0  0  0  0
  -10.2564  -23.7859   28.7316 H   0  0  0  0  0  0  0  0  0  0  0  0
  -10.8465  -23.3803   27.2174 H   0  0  0  0  0  0  0  0  0  0  0  0
   -9.2822  -24.2831   26.2325 H   0  0  0  0  0  0  0  0  0  0  0  0
   -8.5132  -24.8833   27.6383 H   0  0  0  0  0  0  0  0  0  0  0  0
   -6.5354  -23.1646   27.2697 H   0  0  0  0  0  0  0  0  0  0  0  0
   -7.1864  -23.2167   25.7700 H   0  0  0  0  0  0  0  0  0  0  0  0
  1  2  1  0
  2  3  1  0
  3  4  1  0
  4  5  1  0
  5  6  2  0
  5  7  1  0
  7  8  1  0
  8  9  2  0
  9 10  1  0
 10 11  1  0
  2 12  1  0
 12 13  1  0
 13 14  1  0
 14 15  2  0
 14 16  1  0
 16 17  1  0
 17 18  2  0
 18 19  1  0
 19 20  1  0
 20 21  1  0
 21 22  1  0
 22 23  1  0
 23 24  1  0
 19 25  1  0
 11  7  2  0
 25 16  2  0
 24 20  1  0
  1 26  1  0
  1 27  1  0
  1 28  1  0
  2 29  1  0
  3 30  1  0
  3 31  1  0
  4 32  1  0
  8 33  1  0
 10 34  1  0
 11 35  1  0
 12 36  1  0
 12 37  1  0
 13 38  1  0
 17 39  1  0
 18 40  1  0
 20 41  1  0
 21 42  1  0
 21 43  1  0
 22 44  1  0
 22 45  1  0
 23 46  1  0
 23 47  1  0
 24 48  1  0
 24 49  1  0
M  END
>  <Energy>  (848) 
962.91357830071422

>  <compound_id>  (848) 
28371

>  <target_id>  (848) 
1

>  <reference_id>  (848) 
81

>  <inspiration_ids>  (848) 
[96, 81]

>  <energy_score>  (848) 
898.1332204779181

>  <distance_score>  (848) 
12.423718650634985

>  <path>  (848) 
/opt/xchem-fragalysis-2/maxwin/BulkDock/SCRATCH/511023/C28371-P81/C28371-P81.minimised.mol

>  <scratch_subdir>  (848) 
/opt/xchem-fragalysis-2/maxwin/BulkDock/SCRATCH/511023/C28371-P81

>  <fragmenstein_runtime>  (848) 
33.77388119697571

>  <fragmenstein_outcome>  (848) 
too moved

>  <fragmenstein_mode>  (848) 
expansion

>  <fragmenstein_error>  (848) 


$$$$
C18703-P96
     RDKit          3D

 49 51  0  0  0  0  0  0  0  0999 V2000
    3.8436  -13.2456   22.8129 C   0  0  0  0  0  0  0  0  0  0  0  0
    2.9989  -14.3549   21.9092 C   0  0  0  0  0  0  0  0  0  0  0  0
    2.3706  -15.9330   23.2273 C   0  0  0  0  0  0  0  0  0  0  0  0
    0.9214  -17.3193   23.4463 N   0  0  0  0  0  0  0  0  0  0  0  0
   -0.2405  -17.9650   22.2914 C   0  0  0  0  0  0  0  0  0  0  0  0
   -0.4072  -17.5670   21.1470 O   0  0  0  0  0  0  0  0  0  0  0  0
   -1.2251  -19.4583   22.6650 C   0  0  0  0  0  0  0  0  0  0  0  0
   -0.7444  -20.8590   22.7295 C   0  0  0  0  0  0  0  0  0  0  0  0
   -1.8161  -21.7087   22.8783 C   0  0  0  0  0  0  0  0  0  0  0  0
   -2.8741  -20.8819   22.8757 N   0  0  0  0  0  0  0  0  0  0  0  0
   -2.5348  -19.5861   22.9060 N   0  0  0  0  0  0  0  0  0  0  0  0
    2.4001  -12.8532   20.5982 C   0  0  0  0  0  0  0  0  0  0  0  0
    3.2897  -11.9542   19.0474 N   0  0  0  0  0  0  0  0  0  0  0  0
    3.7316  -10.6454   18.8621 C   0  0  0  0  0  0  0  0  0  0  0  0
    3.6083   -9.6696   19.5535 O   0  0  0  0  0  0  0  0  0  0  0  0
    4.6468  -10.5352   17.5557 C   0  0  0  0  0  0  0  0  0  0  0  0
    4.6010  -11.0107   16.2132 C   0  0  0  0  0  0  0  0  0  0  0  0
    5.7545  -10.5613   15.5978 C   0  0  0  0  0  0  0  0  0  0  0  0
    6.5737  -10.2002   16.6230 N   0  0  0  0  0  0  0  0  0  0  0  0
    7.9929  -10.4752   16.7063 C   0  0  0  0  0  0  0  0  0  0  0  0
    8.7760  -10.4928   15.3955 C   0  0  0  0  0  0  0  0  0  0  0  0
   10.2242  -10.5597   15.8654 C   0  0  0  0  0  0  0  0  0  0  0  0
   10.2567   -9.8484   17.2194 C   0  0  0  0  0  0  0  0  0  0  0  0
    8.8073   -9.5008   17.5556 C   0  0  0  0  0  0  0  0  0  0  0  0
    5.8983  -10.0207   17.7695 N   0  0  0  0  0  0  0  0  0  0  0  0
    3.2673  -12.3462   22.6645 H   0  0  0  0  0  0  0  0  0  0  0  0
    4.8231  -13.4992   22.5422 H   0  0  0  0  0  0  0  0  0  0  0  0
    3.7836  -13.1229   23.8962 H   0  0  0  0  0  0  0  0  0  0  0  0
    3.6647  -15.0649   21.6243 H   0  0  0  0  0  0  0  0  0  0  0  0
    3.0451  -16.7485   22.9797 H   0  0  0  0  0  0  0  0  0  0  0  0
    2.7605  -15.7521   24.2504 H   0  0  0  0  0  0  0  0  0  0  0  0
    0.7917  -17.7437   24.2809 H   0  0  0  0  0  0  0  0  0  0  0  0
    0.2469  -21.2254   22.5753 H   0  0  0  0  0  0  0  0  0  0  0  0
   -1.9020  -22.7846   22.9114 H   0  0  0  0  0  0  0  0  0  0  0  0
   -3.8639  -21.1118   22.8756 H   0  0  0  0  0  0  0  0  0  0  0  0
    1.9676  -13.2924   19.6655 H   0  0  0  0  0  0  0  0  0  0  0  0
    3.3179  -13.3062   20.8438 H   0  0  0  0  0  0  0  0  0  0  0  0
    3.5029  -12.4876   18.2204 H   0  0  0  0  0  0  0  0  0  0  0  0
    3.7794  -11.5274   15.7378 H   0  0  0  0  0  0  0  0  0  0  0  0
    6.1013  -10.6740   14.5805 H   0  0  0  0  0  0  0  0  0  0  0  0
    8.0602  -11.4752   17.1611 H   0  0  0  0  0  0  0  0  0  0  0  0
    8.6011   -9.5781   14.8180 H   0  0  0  0  0  0  0  0  0  0  0  0
    8.5203  -11.3467   14.7600 H   0  0  0  0  0  0  0  0  0  0  0  0
   10.9118  -10.1166   15.1410 H   0  0  0  0  0  0  0  0  0  0  0  0
   10.5258  -11.6060   15.9968 H   0  0  0  0  0  0  0  0  0  0  0  0
   10.6752  -10.5184   17.9794 H   0  0  0  0  0  0  0  0  0  0  0  0
   10.8865   -8.9557   17.1963 H   0  0  0  0  0  0  0  0  0  0  0  0
    8.5907   -8.4624   17.2800 H   0  0  0  0  0  0  0  0  0  0  0  0
    8.6056   -9.6060   18.6267 H   0  0  0  0  0  0  0  0  0  0  0  0
  1  2  1  0
  2  3  1  0
  3  4  1  0
  4  5  1  0
  5  6  2  0
  5  7  1  0
  7  8  1  0
  8  9  2  0
  9 10  1  0
 10 11  1  0
  2 12  1  0
 12 13  1  0
 13 14  1  0
 14 15  2  0
 14 16  1  0
 16 17  1  0
 17 18  2  0
 18 19  1  0
 19 20  1  0
 20 21  1  0
 21 22  1  0
 22 23  1  0
 23 24  1  0
 19 25  1  0
 11  7  2  0
 25 16  2  0
 24 20  1  0
  1 26  1  0
  1 27  1  0
  1 28  1  0
  2 29  1  0
  3 30  1  0
  3 31  1  0
  4 32  1  0
  8 33  1  0
  9 34  1  0
 10 35  1  0
 12 36  1  0
 12 37  1  0
 13 38  1  0
 17 39  1  0
 18 40  1  0
 20 41  1  0
 21 42  1  0
 21 43  1  0
 22 44  1  0
 22 45  1  0
 23 46  1  0
 23 47  1  0
 24 48  1  0
 24 49  1  0
M  END
>  <Energy>  (849) 
704.59263666113657

>  <compound_id>  (849) 
18703

>  <target_id>  (849) 
1

>  <reference_id>  (849) 
96

>  <inspiration_ids>  (849) 
[96, 81]

>  <energy_score>  (849) 
614.0708163489678

>  <distance_score>  (849) 
11.520972599617055

>  <path>  (849) 
/opt/xchem-fragalysis-2/maxwin/BulkDock/SCRATCH/511023/C18703-P96/C18703-P96.minimised.mol

>  <scratch_subdir>  (849) 
/opt/xchem-fragalysis-2/maxwin/BulkDock/SCRATCH/511023/C18703-P96

>  <fragmenstein_runtime>  (849) 
16.2342848777771

>  <fragmenstein_outcome>  (849) 
too moved

>  <fragmenstein_mode>  (849) 
expansion

>  <fragmenstein_error>  (849) 


$$$$
C18703-P81
     RDKit          3D

 49 51  0  0  0  0  0  0  0  0999 V2000
   -1.2754  -16.5031   19.9129 C   0  0  0  0  0  0  0  0  0  0  0  0
    0.4025  -16.5459   20.2176 C   0  0  0  0  0  0  0  0  0  0  0  0
    0.1802  -18.2468   21.1955 C   0  0  0  0  0  0  0  0  0  0  0  0
   -0.9516  -19.3166   22.3224 N   0  0  0  0  0  0  0  0  0  0  0  0
   -0.9445  -20.9648   22.6424 C   0  0  0  0  0  0  0  0  0  0  0  0
   -0.1497  -21.8404   22.2892 O   0  0  0  0  0  0  0  0  0  0  0  0
   -2.1535  -21.5721   23.3950 C   0  0  0  0  0  0  0  0  0  0  0  0
   -2.4185  -22.9845   23.4744 C   0  0  0  0  0  0  0  0  0  0  0  0
   -3.5491  -23.1247   24.2383 C   0  0  0  0  0  0  0  0  0  0  0  0
   -3.8766  -21.8708   24.6257 N   0  0  0  0  0  0  0  0  0  0  0  0
   -3.1567  -20.9302   24.0140 N   0  0  0  0  0  0  0  0  0  0  0  0
    1.9780  -15.2012   19.7992 C   0  0  0  0  0  0  0  0  0  0  0  0
    2.3822  -13.9891   18.4156 N   0  0  0  0  0  0  0  0  0  0  0  0
    3.6499  -12.7809   18.2818 C   0  0  0  0  0  0  0  0  0  0  0  0
    4.5477  -12.6454   19.0908 O   0  0  0  0  0  0  0  0  0  0  0  0
    3.6475  -11.4033   16.9236 C   0  0  0  0  0  0  0  0  0  0  0  0
    3.7696  -11.1997   15.3513 C   0  0  0  0  0  0  0  0  0  0  0  0
    4.0346   -9.8456   15.0248 C   0  0  0  0  0  0  0  0  0  0  0  0
    3.9789   -9.1896   16.2305 N   0  0  0  0  0  0  0  0  0  0  0  0
    3.9540   -7.7694   16.5121 C   0  0  0  0  0  0  0  0  0  0  0  0
    2.5594   -7.1728   16.7660 C   0  0  0  0  0  0  0  0  0  0  0  0
    2.8147   -5.6797   16.7206 C   0  0  0  0  0  0  0  0  0  0  0  0
    3.7241   -5.5475   15.5133 C   0  0  0  0  0  0  0  0  0  0  0  0
    4.5797   -6.8227   15.4930 C   0  0  0  0  0  0  0  0  0  0  0  0
    3.5436  -10.0039   17.2526 N   0  0  0  0  0  0  0  0  0  0  0  0
   -1.5467  -17.2572   19.1543 H   0  0  0  0  0  0  0  0  0  0  0  0
   -1.8574  -17.0116   20.6483 H   0  0  0  0  0  0  0  0  0  0  0  0
   -1.7261  -15.5567   19.6390 H   0  0  0  0  0  0  0  0  0  0  0  0
    0.5930  -17.1716   19.3622 H   0  0  0  0  0  0  0  0  0  0  0  0
   -0.2175  -17.4874   21.7732 H   0  0  0  0  0  0  0  0  0  0  0  0
    1.1124  -18.7814   21.1113 H   0  0  0  0  0  0  0  0  0  0  0  0
   -1.6452  -18.9092   22.7960 H   0  0  0  0  0  0  0  0  0  0  0  0
   -1.8377  -23.7718   23.0123 H   0  0  0  0  0  0  0  0  0  0  0  0
   -4.1210  -23.9813   24.5388 H   0  0  0  0  0  0  0  0  0  0  0  0
   -4.5884  -21.5725   25.2815 H   0  0  0  0  0  0  0  0  0  0  0  0
    1.7372  -15.3157   18.6306 H   0  0  0  0  0  0  0  0  0  0  0  0
    2.2959  -14.5296   20.5271 H   0  0  0  0  0  0  0  0  0  0  0  0
    1.8057  -13.9548   17.5772 H   0  0  0  0  0  0  0  0  0  0  0  0
    3.7484  -11.9443   14.5761 H   0  0  0  0  0  0  0  0  0  0  0  0
    4.2133   -9.3594   14.0797 H   0  0  0  0  0  0  0  0  0  0  0  0
    4.5334   -7.6551   17.4336 H   0  0  0  0  0  0  0  0  0  0  0  0
    1.8572   -7.4379   15.9680 H   0  0  0  0  0  0  0  0  0  0  0  0
    2.1259   -7.4914   17.7182 H   0  0  0  0  0  0  0  0  0  0  0  0
    3.3304   -5.3496   17.6298 H   0  0  0  0  0  0  0  0  0  0  0  0
    1.8944   -5.0987   16.6146 H   0  0  0  0  0  0  0  0  0  0  0  0
    3.1220   -5.5011   14.5975 H   0  0  0  0  0  0  0  0  0  0  0  0
    4.3236   -4.6353   15.5551 H   0  0  0  0  0  0  0  0  0  0  0  0
    5.6082   -6.6066   15.8013 H   0  0  0  0  0  0  0  0  0  0  0  0
    4.6184   -7.2251   14.4774 H   0  0  0  0  0  0  0  0  0  0  0  0
  1  2  1  0
  2  3  1  0
  3  4  1  0
  4  5  1  0
  5  6  2  0
  5  7  1  0
  7  8  1  0
  8  9  2  0
  9 10  1  0
 10 11  1  0
  2 12  1  0
 12 13  1  0
 13 14  1  0
 14 15  2  0
 14 16  1  0
 16 17  1  0
 17 18  2  0
 18 19  1  0
 19 20  1  0
 20 21  1  0
 21 22  1  0
 22 23  1  0
 23 24  1  0
 19 25  1  0
 11  7  2  0
 25 16  2  0
 24 20  1  0
  1 26  1  0
  1 27  1  0
  1 28  1  0
  2 29  1  0
  3 30  1  0
  3 31  1  0
  4 32  1  0
  8 33  1  0
  9 34  1  0
 10 35  1  0
 12 36  1  0
 12 37  1  0
 13 38  1  0
 17 39  1  0
 18 40  1  0
 20 41  1  0
 21 42  1  0
 21 43  1  0
 22 44  1  0
 22 45  1  0
 23 46  1  0
 23 47  1  0
 24 48  1  0
 24 49  1  0
M  END
>  <Energy>  (850) 
685.44087024336318

>  <compound_id>  (850) 
18703

>  <target_id>  (850) 
1

>  <reference_id>  (850) 
81

>  <inspiration_ids>  (850) 
[96, 81]

>  <energy_score>  (850) 
594.9190499311956

>  <distance_score>  (850) 
10.922555561533835

>  <path>  (850) 
/opt/xchem-fragalysis-2/maxwin/BulkDock/SCRATCH/511023/C18703-P81/C18703-P81.minimised.mol

>  <scratch_subdir>  (850) 
/opt/xchem-fragalysis-2/maxwin/BulkDock/SCRATCH/511023/C18703-P81

>  <fragmenstein_runtime>  (850) 
43.972392559051514

>  <fragmenstein_outcome>  (850) 
too moved

>  <fragmenstein_mode>  (850) 
expansion

>  <fragmenstein_error>  (850) 


$$$$
C28372-P96
     RDKit          3D

 47 49  0  0  0  0  0  0  0  0999 V2000
   -1.0863  -13.3889   20.8695 C   0  0  0  0  0  0  0  0  0  0  0  0
    0.2840  -14.0433   19.9675 N   0  0  0  0  0  0  0  0  0  0  0  0
    1.7588  -13.0491   18.9842 C   0  0  0  0  0  0  0  0  0  0  0  0
    3.3146  -11.5664   18.6871 C   0  0  0  0  0  0  0  0  0  0  0  0
    5.1779  -10.9355   19.1489 N   0  0  0  0  0  0  0  0  0  0  0  0
    5.8247   -9.7701   20.6107 C   0  0  0  0  0  0  0  0  0  0  0  0
    5.0228   -9.2204   21.3205 O   0  0  0  0  0  0  0  0  0  0  0  0
    7.2587   -9.5241   21.1895 C   0  0  0  0  0  0  0  0  0  0  0  0
    8.3839  -10.2658   21.6108 C   0  0  0  0  0  0  0  0  0  0  0  0
    9.3546   -9.5550   22.2007 N   0  0  0  0  0  0  0  0  0  0  0  0
    8.7479   -8.3988   22.4720 N   0  0  0  0  0  0  0  0  0  0  0  0
    7.4574   -8.3956   22.0514 C   0  0  0  0  0  0  0  0  0  0  0  0
   -0.5869  -15.5902   19.4702 C   0  0  0  0  0  0  0  0  0  0  0  0
   -0.7485  -17.2367   19.7265 C   0  0  0  0  0  0  0  0  0  0  0  0
   -0.5312  -18.1599   18.6348 C   0  0  0  0  0  0  0  0  0  0  0  0
   -0.9713  -19.3937   19.0164 C   0  0  0  0  0  0  0  0  0  0  0  0
   -1.5141  -19.2203   20.2469 N   0  0  0  0  0  0  0  0  0  0  0  0
   -2.2635  -20.2824   20.8891 C   0  0  0  0  0  0  0  0  0  0  0  0
   -3.7743  -20.2508   20.6004 C   0  0  0  0  0  0  0  0  0  0  0  0
   -4.4577  -20.6569   21.9056 C   0  0  0  0  0  0  0  0  0  0  0  0
   -3.3601  -21.2823   22.7542 C   0  0  0  0  0  0  0  0  0  0  0  0
   -2.1332  -20.4590   22.3929 C   0  0  0  0  0  0  0  0  0  0  0  0
   -1.4568  -17.9269   20.6649 N   0  0  0  0  0  0  0  0  0  0  0  0
   -0.8934  -12.5862   21.5409 H   0  0  0  0  0  0  0  0  0  0  0  0
   -2.0306  -13.6986   20.3563 H   0  0  0  0  0  0  0  0  0  0  0  0
   -1.6763  -13.8068   21.7273 H   0  0  0  0  0  0  0  0  0  0  0  0
    1.8603  -14.0647   18.7877 H   0  0  0  0  0  0  0  0  0  0  0  0
    1.5509  -13.2450   17.8996 H   0  0  0  0  0  0  0  0  0  0  0  0
    3.3968  -11.4662   17.6098 H   0  0  0  0  0  0  0  0  0  0  0  0
    2.9179  -10.8447   19.3755 H   0  0  0  0  0  0  0  0  0  0  0  0
    5.9621  -11.2444   18.6069 H   0  0  0  0  0  0  0  0  0  0  0  0
    8.5345  -11.3152   21.4740 H   0  0  0  0  0  0  0  0  0  0  0  0
    9.2445   -7.6981   23.0138 H   0  0  0  0  0  0  0  0  0  0  0  0
    6.7860   -7.5776   22.2829 H   0  0  0  0  0  0  0  0  0  0  0  0
   -1.5780  -15.3422   19.0622 H   0  0  0  0  0  0  0  0  0  0  0  0
    0.0615  -15.6943   18.6629 H   0  0  0  0  0  0  0  0  0  0  0  0
   -0.0954  -17.9351   17.6719 H   0  0  0  0  0  0  0  0  0  0  0  0
   -0.9734  -20.3440   18.5019 H   0  0  0  0  0  0  0  0  0  0  0  0
   -1.8802  -21.2156   20.4476 H   0  0  0  0  0  0  0  0  0  0  0  0
   -4.0137  -20.9701   19.8078 H   0  0  0  0  0  0  0  0  0  0  0  0
   -4.1330  -19.2751   20.2574 H   0  0  0  0  0  0  0  0  0  0  0  0
   -4.8517  -19.7649   22.4055 H   0  0  0  0  0  0  0  0  0  0  0  0
   -5.2944  -21.3420   21.7403 H   0  0  0  0  0  0  0  0  0  0  0  0
   -3.2127  -22.3313   22.4716 H   0  0  0  0  0  0  0  0  0  0  0  0
   -3.5891  -21.2429   23.8230 H   0  0  0  0  0  0  0  0  0  0  0  0
   -1.1996  -20.9520   22.6798 H   0  0  0  0  0  0  0  0  0  0  0  0
   -2.1848  -19.5043   22.9010 H   0  0  0  0  0  0  0  0  0  0  0  0
  1  2  1  0
  2  3  1  0
  3  4  1  0
  4  5  1  0
  5  6  1  0
  6  7  2  0
  6  8  1  0
  8  9  1  0
  9 10  2  0
 10 11  1  0
 11 12  1  0
  2 13  1  0
 13 14  1  0
 14 15  1  0
 15 16  2  0
 16 17  1  0
 17 18  1  0
 18 19  1  0
 19 20  1  0
 20 21  1  0
 21 22  1  0
 17 23  1  0
 12  8  2  0
 23 14  2  0
 22 18  1  0
  1 24  1  0
  1 25  1  0
  1 26  1  0
  3 27  1  0
  3 28  1  0
  4 29  1  0
  4 30  1  0
  5 31  1  0
  9 32  1  0
 11 33  1  0
 12 34  1  0
 13 35  1  0
 13 36  1  0
 15 37  1  0
 16 38  1  0
 18 39  1  0
 19 40  1  0
 19 41  1  0
 20 42  1  0
 20 43  1  0
 21 44  1  0
 21 45  1  0
 22 46  1  0
 22 47  1  0
M  END
>  <Energy>  (851) 
769.92011028070579

>  <compound_id>  (851) 
28372

>  <target_id>  (851) 
1

>  <reference_id>  (851) 
96

>  <inspiration_ids>  (851) 
[96, 81]

>  <energy_score>  (851) 
689.3523259378128

>  <distance_score>  (851) 
13.114619942099011

>  <path>  (851) 
/opt/xchem-fragalysis-2/maxwin/BulkDock/SCRATCH/511023/C28372-P96/C28372-P96.minimised.mol

>  <scratch_subdir>  (851) 
/opt/xchem-fragalysis-2/maxwin/BulkDock/SCRATCH/511023/C28372-P96

>  <fragmenstein_runtime>  (851) 
26.78560519218445

>  <fragmenstein_outcome>  (851) 
too moved

>  <fragmenstein_mode>  (851) 
expansion

>  <fragmenstein_error>  (851) 


$$$$
C28372-P81
     RDKit          3D

 47 49  0  0  0  0  0  0  0  0999 V2000
   -5.3646  -16.9884   16.4833 C   0  0  0  0  0  0  0  0  0  0  0  0
   -4.3815  -16.6767   17.5167 N   0  0  0  0  0  0  0  0  0  0  0  0
   -3.1051  -16.1563   16.9267 C   0  0  0  0  0  0  0  0  0  0  0  0
   -2.9407  -14.6490   16.3032 C   0  0  0  0  0  0  0  0  0  0  0  0
   -2.4722  -13.3536   17.1557 N   0  0  0  0  0  0  0  0  0  0  0  0
   -3.1750  -11.9846   17.3891 C   0  0  0  0  0  0  0  0  0  0  0  0
   -4.2007  -11.5389   16.9205 O   0  0  0  0  0  0  0  0  0  0  0  0
   -2.6049  -11.0890   18.4060 C   0  0  0  0  0  0  0  0  0  0  0  0
   -2.1786  -11.3858   19.7053 C   0  0  0  0  0  0  0  0  0  0  0  0
   -2.0867  -10.3295   20.5157 N   0  0  0  0  0  0  0  0  0  0  0  0
   -2.5522   -9.3414   19.7505 N   0  0  0  0  0  0  0  0  0  0  0  0
   -2.8180   -9.7192   18.4699 C   0  0  0  0  0  0  0  0  0  0  0  0
   -4.1382  -17.8536   18.4169 C   0  0  0  0  0  0  0  0  0  0  0  0
   -5.2213  -18.1119   19.4374 C   0  0  0  0  0  0  0  0  0  0  0  0
   -5.2763  -17.7208   20.8037 C   0  0  0  0  0  0  0  0  0  0  0  0
   -6.3885  -18.3373   21.3254 C   0  0  0  0  0  0  0  0  0  0  0  0
   -6.9056  -19.0622   20.2949 N   0  0  0  0  0  0  0  0  0  0  0  0
   -7.8545  -20.1329   20.3526 C   0  0  0  0  0  0  0  0  0  0  0  0
   -7.2735  -21.3139   21.1081 C   0  0  0  0  0  0  0  0  0  0  0  0
   -8.4851  -22.1744   21.3351 C   0  0  0  0  0  0  0  0  0  0  0  0
   -9.7096  -21.2428   21.2963 C   0  0  0  0  0  0  0  0  0  0  0  0
   -9.1678  -19.8429   21.0553 C   0  0  0  0  0  0  0  0  0  0  0  0
   -6.2374  -18.9262   19.1430 N   0  0  0  0  0  0  0  0  0  0  0  0
   -5.0381  -17.8136   15.8406 H   0  0  0  0  0  0  0  0  0  0  0  0
   -5.5488  -16.1151   15.8489 H   0  0  0  0  0  0  0  0  0  0  0  0
   -6.3317  -17.2521   16.9225 H   0  0  0  0  0  0  0  0  0  0  0  0
   -2.7906  -16.8600   16.1449 H   0  0  0  0  0  0  0  0  0  0  0  0
   -2.4017  -16.2168   17.7515 H   0  0  0  0  0  0  0  0  0  0  0  0
   -2.1834  -14.7317   15.5178 H   0  0  0  0  0  0  0  0  0  0  0  0
   -3.9157  -14.4239   15.8615 H   0  0  0  0  0  0  0  0  0  0  0  0
   -1.5895  -13.3636   17.6427 H   0  0  0  0  0  0  0  0  0  0  0  0
   -2.0519  -12.3611   20.1287 H   0  0  0  0  0  0  0  0  0  0  0  0
   -2.8287   -8.4857   20.2118 H   0  0  0  0  0  0  0  0  0  0  0  0
   -3.3472   -9.0604   17.7989 H   0  0  0  0  0  0  0  0  0  0  0  0
   -3.2221  -17.6796   18.9975 H   0  0  0  0  0  0  0  0  0  0  0  0
   -3.9509  -18.7556   17.8197 H   0  0  0  0  0  0  0  0  0  0  0  0
   -4.5755  -17.0916   21.3294 H   0  0  0  0  0  0  0  0  0  0  0  0
   -6.8048  -18.3580   22.3220 H   0  0  0  0  0  0  0  0  0  0  0  0
   -8.0778  -20.4385   19.3193 H   0  0  0  0  0  0  0  0  0  0  0  0
   -6.4937  -21.8347   20.5421 H   0  0  0  0  0  0  0  0  0  0  0  0
   -6.8353  -21.0139   22.0651 H   0  0  0  0  0  0  0  0  0  0  0  0
   -8.5337  -22.8961   20.5122 H   0  0  0  0  0  0  0  0  0  0  0  0
   -8.4098  -22.7261   22.2763 H   0  0  0  0  0  0  0  0  0  0  0  0
  -10.3028  -21.2976   22.2140 H   0  0  0  0  0  0  0  0  0  0  0  0
  -10.3680  -21.5324   20.4686 H   0  0  0  0  0  0  0  0  0  0  0  0
   -9.0214  -19.3166   22.0043 H   0  0  0  0  0  0  0  0  0  0  0  0
   -9.8444  -19.2366   20.4448 H   0  0  0  0  0  0  0  0  0  0  0  0
  1  2  1  0
  2  3  1  0
  3  4  1  0
  4  5  1  0
  5  6  1  0
  6  7  2  0
  6  8  1  0
  8  9  1  0
  9 10  2  0
 10 11  1  0
 11 12  1  0
  2 13  1  0
 13 14  1  0
 14 15  1  0
 15 16  2  0
 16 17  1  0
 17 18  1  0
 18 19  1  0
 19 20  1  0
 20 21  1  0
 21 22  1  0
 17 23  1  0
 12  8  2  0
 23 14  2  0
 22 18  1  0
  1 24  1  0
  1 25  1  0
  1 26  1  0
  3 27  1  0
  3 28  1  0
  4 29  1  0
  4 30  1  0
  5 31  1  0
  9 32  1  0
 11 33  1  0
 12 34  1  0
 13 35  1  0
 13 36  1  0
 15 37  1  0
 16 38  1  0
 18 39  1  0
 19 40  1  0
 19 41  1  0
 20 42  1  0
 20 43  1  0
 21 44  1  0
 21 45  1  0
 22 46  1  0
 22 47  1  0
M  END
>  <Energy>  (852) 
98.731574918361602

>  <compound_id>  (852) 
28372

>  <target_id>  (852) 
1

>  <reference_id>  (852) 
81

>  <inspiration_ids>  (852) 
[96, 81]

>  <energy_score>  (852) 
18.163790575468056

>  <distance_score>  (852) 
14.44335083321054

>  <path>  (852) 
/opt/xchem-fragalysis-2/maxwin/BulkDock/SCRATCH/511023/C28372-P81/C28372-P81.minimised.mol

>  <scratch_subdir>  (852) 
/opt/xchem-fragalysis-2/maxwin/BulkDock/SCRATCH/511023/C28372-P81

>  <fragmenstein_runtime>  (852) 
43.36504602432251

>  <fragmenstein_outcome>  (852) 
too moved

>  <fragmenstein_mode>  (852) 
expansion

>  <fragmenstein_error>  (852) 


$$$$
C18704-P96
     RDKit          3D

 47 49  0  0  0  0  0  0  0  0999 V2000
    0.9267   -8.9630   10.2245 C   0  0  0  0  0  0  0  0  0  0  0  0
    1.8412  -10.0929   10.2650 N   0  0  0  0  0  0  0  0  0  0  0  0
    1.1271  -11.4347   10.5614 C   0  0  0  0  0  0  0  0  0  0  0  0
   -0.4570  -11.6252   10.3262 C   0  0  0  0  0  0  0  0  0  0  0  0
   -1.2812  -12.6581   11.0408 N   0  0  0  0  0  0  0  0  0  0  0  0
   -2.3615  -13.5211   10.5612 C   0  0  0  0  0  0  0  0  0  0  0  0
   -2.8037  -13.6762    9.4576 O   0  0  0  0  0  0  0  0  0  0  0  0
   -3.1304  -14.2825   11.6672 C   0  0  0  0  0  0  0  0  0  0  0  0
   -3.6251  -15.6355   11.6052 C   0  0  0  0  0  0  0  0  0  0  0  0
   -4.3021  -15.8764   12.7813 C   0  0  0  0  0  0  0  0  0  0  0  0
   -4.2025  -14.7205   13.4881 N   0  0  0  0  0  0  0  0  0  0  0  0
   -3.6204  -13.7114   12.7966 N   0  0  0  0  0  0  0  0  0  0  0  0
    3.0196   -9.8665   11.2221 C   0  0  0  0  0  0  0  0  0  0  0  0
    3.8043   -8.5288   11.3098 C   0  0  0  0  0  0  0  0  0  0  0  0
    3.7792   -7.3535   10.5271 C   0  0  0  0  0  0  0  0  0  0  0  0
    4.5300   -6.4344   11.2220 C   0  0  0  0  0  0  0  0  0  0  0  0
    4.9784   -7.0742   12.3617 N   0  0  0  0  0  0  0  0  0  0  0  0
    5.9329   -6.4927   13.2908 C   0  0  0  0  0  0  0  0  0  0  0  0
    6.0498   -6.0775   15.1800 C   0  0  0  0  0  0  0  0  0  0  0  0
    7.8014   -4.9765   15.4238 C   0  0  0  0  0  0  0  0  0  0  0  0
    8.8739   -5.0821   13.4226 C   0  0  0  0  0  0  0  0  0  0  0  0
    7.6219   -6.4530   12.4492 C   0  0  0  0  0  0  0  0  0  0  0  0
    4.7460   -8.3752   12.2778 N   0  0  0  0  0  0  0  0  0  0  0  0
    0.5760   -8.6598   11.2097 H   0  0  0  0  0  0  0  0  0  0  0  0
    1.3877   -8.0948    9.7545 H   0  0  0  0  0  0  0  0  0  0  0  0
    0.0662   -9.1658    9.5797 H   0  0  0  0  0  0  0  0  0  0  0  0
    1.6221  -12.1718    9.9158 H   0  0  0  0  0  0  0  0  0  0  0  0
    1.3723  -11.7638   11.5720 H   0  0  0  0  0  0  0  0  0  0  0  0
   -0.6358  -11.7570    9.2532 H   0  0  0  0  0  0  0  0  0  0  0  0
   -0.9617  -10.7004   10.6195 H   0  0  0  0  0  0  0  0  0  0  0  0
   -1.2317  -12.7210   12.0600 H   0  0  0  0  0  0  0  0  0  0  0  0
   -3.4715  -16.3308   10.7921 H   0  0  0  0  0  0  0  0  0  0  0  0
   -4.7854  -16.7555   13.1815 H   0  0  0  0  0  0  0  0  0  0  0  0
   -4.5105  -14.5438   14.4373 H   0  0  0  0  0  0  0  0  0  0  0  0
    3.7504  -10.6442   10.9726 H   0  0  0  0  0  0  0  0  0  0  0  0
    2.6315  -10.0497   12.2289 H   0  0  0  0  0  0  0  0  0  0  0  0
    3.2546   -7.1706    9.6024 H   0  0  0  0  0  0  0  0  0  0  0  0
    4.7820   -5.4046   11.0090 H   0  0  0  0  0  0  0  0  0  0  0  0
    5.4726   -5.5038   13.0964 H   0  0  0  0  0  0  0  0  0  0  0  0
    6.1372   -7.0289   15.7170 H   0  0  0  0  0  0  0  0  0  0  0  0
    5.1618   -5.5030   15.4692 H   0  0  0  0  0  0  0  0  0  0  0  0
    7.9354   -4.0125   15.9706 H   0  0  0  0  0  0  0  0  0  0  0  0
    7.7964   -5.7680   16.2857 H   0  0  0  0  0  0  0  0  0  0  0  0
    9.8514   -5.5819   13.1528 H   0  0  0  0  0  0  0  0  0  0  0  0
    9.1037   -4.0235   13.0299 H   0  0  0  0  0  0  0  0  0  0  0  0
    7.9154   -7.5056   12.5548 H   0  0  0  0  0  0  0  0  0  0  0  0
    7.3691   -6.1460   11.4252 H   0  0  0  0  0  0  0  0  0  0  0  0
  1  2  1  0
  2  3  1  0
  3  4  1  0
  4  5  1  0
  5  6  1  0
  6  7  2  0
  6  8  1  0
  8  9  1  0
  9 10  2  0
 10 11  1  0
 11 12  1  0
  2 13  1  0
 13 14  1  0
 14 15  1  0
 15 16  2  0
 16 17  1  0
 17 18  1  0
 18 19  1  0
 19 20  1  0
 20 21  1  0
 21 22  1  0
 17 23  1  0
 12  8  2  0
 23 14  2  0
 22 18  1  0
  1 24  1  0
  1 25  1  0
  1 26  1  0
  3 27  1  0
  3 28  1  0
  4 29  1  0
  4 30  1  0
  5 31  1  0
  9 32  1  0
 10 33  1  0
 11 34  1  0
 13 35  1  0
 13 36  1  0
 15 37  1  0
 16 38  1  0
 18 39  1  0
 19 40  1  0
 19 41  1  0
 20 42  1  0
 20 43  1  0
 21 44  1  0
 21 45  1  0
 22 46  1  0
 22 47  1  0
M  END
>  <Energy>  (853) 
532.74701480346982

>  <compound_id>  (853) 
18704

>  <target_id>  (853) 
1

>  <reference_id>  (853) 
96

>  <inspiration_ids>  (853) 
[96, 81]

>  <energy_score>  (853) 
423.31809887632835

>  <distance_score>  (853) 
16.499676226304338

>  <path>  (853) 
/opt/xchem-fragalysis-2/maxwin/BulkDock/SCRATCH/511023/C18704-P96/C18704-P96.minimised.mol

>  <scratch_subdir>  (853) 
/opt/xchem-fragalysis-2/maxwin/BulkDock/SCRATCH/511023/C18704-P96

>  <fragmenstein_runtime>  (853) 
28.663209676742554

>  <fragmenstein_outcome>  (853) 
too moved

>  <fragmenstein_mode>  (853) 
expansion

>  <fragmenstein_error>  (853) 


$$$$
C18704-P81
     RDKit          3D

 47 49  0  0  0  0  0  0  0  0999 V2000
    3.7595  -13.2680   18.4057 C   0  0  0  0  0  0  0  0  0  0  0  0
    4.7200  -14.4092   18.3486 N   0  0  0  0  0  0  0  0  0  0  0  0
    3.1879  -15.4837   17.8319 C   0  0  0  0  0  0  0  0  0  0  0  0
    2.3236  -17.0918   16.8094 C   0  0  0  0  0  0  0  0  0  0  0  0
    1.6416  -18.6344   17.1196 N   0  0  0  0  0  0  0  0  0  0  0  0
    0.6189  -19.0690   18.1244 C   0  0  0  0  0  0  0  0  0  0  0  0
   -0.0311  -18.4248   18.9054 O   0  0  0  0  0  0  0  0  0  0  0  0
    0.2640  -20.5193   18.2370 C   0  0  0  0  0  0  0  0  0  0  0  0
   -0.4296  -21.0566   19.3933 C   0  0  0  0  0  0  0  0  0  0  0  0
   -0.7612  -22.3468   19.0824 C   0  0  0  0  0  0  0  0  0  0  0  0
   -0.2725  -22.5354   17.8259 N   0  0  0  0  0  0  0  0  0  0  0  0
    0.3618  -21.4635   17.2900 N   0  0  0  0  0  0  0  0  0  0  0  0
    5.6061  -13.2064   19.6634 C   0  0  0  0  0  0  0  0  0  0  0  0
    7.1717  -12.3455   20.4356 C   0  0  0  0  0  0  0  0  0  0  0  0
    8.4716  -13.0582   20.8666 C   0  0  0  0  0  0  0  0  0  0  0  0
    9.4869  -12.1800   20.9905 C   0  0  0  0  0  0  0  0  0  0  0  0
    8.9394  -10.9667   20.7623 N   0  0  0  0  0  0  0  0  0  0  0  0
    9.8271   -9.7995   20.8070 C   0  0  0  0  0  0  0  0  0  0  0  0
   10.9652   -9.8767   21.8729 C   0  0  0  0  0  0  0  0  0  0  0  0
   10.3067   -9.4202   23.1636 C   0  0  0  0  0  0  0  0  0  0  0  0
    9.3389   -8.3328   22.7213 C   0  0  0  0  0  0  0  0  0  0  0  0
    9.2862   -8.4300   21.1902 C   0  0  0  0  0  0  0  0  0  0  0  0
    7.6451  -11.0597   20.2114 N   0  0  0  0  0  0  0  0  0  0  0  0
    3.8020  -12.8869   19.3922 H   0  0  0  0  0  0  0  0  0  0  0  0
    3.8950  -12.3527   17.8199 H   0  0  0  0  0  0  0  0  0  0  0  0
    2.7620  -13.5461   18.1771 H   0  0  0  0  0  0  0  0  0  0  0  0
    3.1332  -15.1178   16.8670 H   0  0  0  0  0  0  0  0  0  0  0  0
    2.3178  -15.0296   18.2952 H   0  0  0  0  0  0  0  0  0  0  0  0
    2.9408  -17.4657   15.9843 H   0  0  0  0  0  0  0  0  0  0  0  0
    2.0546  -17.3115   17.7961 H   0  0  0  0  0  0  0  0  0  0  0  0
    1.9312  -19.4379   16.5692 H   0  0  0  0  0  0  0  0  0  0  0  0
   -0.6626  -20.5161   20.3011 H   0  0  0  0  0  0  0  0  0  0  0  0
   -1.2864  -23.1222   19.6202 H   0  0  0  0  0  0  0  0  0  0  0  0
   -0.3279  -23.3766   17.2623 H   0  0  0  0  0  0  0  0  0  0  0  0
    4.9779  -13.0958   20.5360 H   0  0  0  0  0  0  0  0  0  0  0  0
    5.5380  -12.2439   19.1448 H   0  0  0  0  0  0  0  0  0  0  0  0
    8.6650  -14.1230   20.8871 H   0  0  0  0  0  0  0  0  0  0  0  0
   10.5317  -12.3681   21.1785 H   0  0  0  0  0  0  0  0  0  0  0  0
   10.2865   -9.7881   19.8233 H   0  0  0  0  0  0  0  0  0  0  0  0
   11.4677  -10.8358   21.9968 H   0  0  0  0  0  0  0  0  0  0  0  0
   11.7545   -9.1586   21.6163 H   0  0  0  0  0  0  0  0  0  0  0  0
    9.7572  -10.2488   23.6251 H   0  0  0  0  0  0  0  0  0  0  0  0
   11.0359   -9.0531   23.8918 H   0  0  0  0  0  0  0  0  0  0  0  0
    8.3779   -8.4829   23.2142 H   0  0  0  0  0  0  0  0  0  0  0  0
    9.6958   -7.3415   23.0235 H   0  0  0  0  0  0  0  0  0  0  0  0
    9.9822   -7.6638   20.8475 H   0  0  0  0  0  0  0  0  0  0  0  0
    8.3593   -8.1730   20.6942 H   0  0  0  0  0  0  0  0  0  0  0  0
  1  2  1  0
  2  3  1  0
  3  4  1  0
  4  5  1  0
  5  6  1  0
  6  7  2  0
  6  8  1  0
  8  9  1  0
  9 10  2  0
 10 11  1  0
 11 12  1  0
  2 13  1  0
 13 14  1  0
 14 15  1  0
 15 16  2  0
 16 17  1  0
 17 18  1  0
 18 19  1  0
 19 20  1  0
 20 21  1  0
 21 22  1  0
 17 23  1  0
 12  8  2  0
 23 14  2  0
 22 18  1  0
  1 24  1  0
  1 25  1  0
  1 26  1  0
  3 27  1  0
  3 28  1  0
  4 29  1  0
  4 30  1  0
  5 31  1  0
  9 32  1  0
 10 33  1  0
 11 34  1  0
 13 35  1  0
 13 36  1  0
 15 37  1  0
 16 38  1  0
 18 39  1  0
 19 40  1  0
 19 41  1  0
 20 42  1  0
 20 43  1  0
 21 44  1  0
 21 45  1  0
 22 46  1  0
 22 47  1  0
M  END
>  <Energy>  (854) 
684.9836905028842

>  <compound_id>  (854) 
18704

>  <target_id>  (854) 
1

>  <reference_id>  (854) 
81

>  <inspiration_ids>  (854) 
[96, 81]

>  <energy_score>  (854) 
575.5547745757368

>  <distance_score>  (854) 
13.910131296001252

>  <path>  (854) 
/opt/xchem-fragalysis-2/maxwin/BulkDock/SCRATCH/511023/C18704-P81/C18704-P81.minimised.mol

>  <scratch_subdir>  (854) 
/opt/xchem-fragalysis-2/maxwin/BulkDock/SCRATCH/511023/C18704-P81

>  <fragmenstein_runtime>  (854) 
35.54937124252319

>  <fragmenstein_outcome>  (854) 
too moved

>  <fragmenstein_mode>  (854) 
expansion

>  <fragmenstein_error>  (854) 


$$$$
C28373-P96
     RDKit          3D

 49 51  0  0  0  0  0  0  0  0999 V2000
    1.2296  -14.3493   16.9711 C   0  0  0  0  0  0  0  0  0  0  0  0
    0.4059  -14.8006   18.7764 C   0  0  0  0  0  0  0  0  0  0  0  0
   -0.7404  -16.2987   19.1745 C   0  0  0  0  0  0  0  0  0  0  0  0
   -2.5290  -16.5891   19.1466 N   0  0  0  0  0  0  0  0  0  0  0  0
   -2.5098  -15.2842   18.7006 C   0  0  0  0  0  0  0  0  0  0  0  0
   -2.8569  -17.8292   18.4454 C   0  0  0  0  0  0  0  0  0  0  0  0
   -3.0999  -18.0234   17.2877 O   0  0  0  0  0  0  0  0  0  0  0  0
   -3.0513  -19.0519   19.2445 C   0  0  0  0  0  0  0  0  0  0  0  0
   -3.9560  -19.1449   20.3109 C   0  0  0  0  0  0  0  0  0  0  0  0
   -3.9414  -20.4662   20.7613 C   0  0  0  0  0  0  0  0  0  0  0  0
   -3.2782  -21.2411   19.9111 N   0  0  0  0  0  0  0  0  0  0  0  0
   -2.9662  -20.3952   18.8846 N   0  0  0  0  0  0  0  0  0  0  0  0
   -2.6440  -20.9368   17.5683 C   0  0  0  0  0  0  0  0  0  0  0  0
   -3.8974  -21.2441   16.7467 C   0  0  0  0  0  0  0  0  0  0  0  0
   -4.2910  -22.6568   17.1568 C   0  0  0  0  0  0  0  0  0  0  0  0
   -2.9854  -23.3623   17.5145 C   0  0  0  0  0  0  0  0  0  0  0  0
   -1.9060  -22.2805   17.5893 C   0  0  0  0  0  0  0  0  0  0  0  0
    1.5793  -13.4000   18.7260 N   0  0  0  0  0  0  0  0  0  0  0  0
    2.3673  -12.7052   19.8048 C   0  0  0  0  0  0  0  0  0  0  0  0
    2.3557  -12.8601   21.0354 O   0  0  0  0  0  0  0  0  0  0  0  0
    3.4211  -11.5759   18.7430 C   0  0  0  0  0  0  0  0  0  0  0  0
    4.6966  -10.8513   18.6988 C   0  0  0  0  0  0  0  0  0  0  0  0
    5.0449  -10.0693   17.7338 N   0  0  0  0  0  0  0  0  0  0  0  0
    4.4025  -10.7546   16.9194 N   0  0  0  0  0  0  0  0  0  0  0  0
    3.5128  -11.6570   17.3753 C   0  0  0  0  0  0  0  0  0  0  0  0
    0.6649  -13.6544   16.3171 H   0  0  0  0  0  0  0  0  0  0  0  0
    1.6518  -15.2254   16.4790 H   0  0  0  0  0  0  0  0  0  0  0  0
    2.2959  -14.0639   16.8335 H   0  0  0  0  0  0  0  0  0  0  0  0
    0.1389  -14.3726   19.7118 H   0  0  0  0  0  0  0  0  0  0  0  0
   -0.4163  -17.0302   18.4561 H   0  0  0  0  0  0  0  0  0  0  0  0
   -0.4696  -16.6821   20.1508 H   0  0  0  0  0  0  0  0  0  0  0  0
   -2.3705  -15.0661   17.6693 H   0  0  0  0  0  0  0  0  0  0  0  0
   -2.5988  -14.4079   19.3264 H   0  0  0  0  0  0  0  0  0  0  0  0
   -3.5958  -15.3888   18.6934 H   0  0  0  0  0  0  0  0  0  0  0  0
   -4.5440  -18.3274   20.6944 H   0  0  0  0  0  0  0  0  0  0  0  0
   -4.4135  -20.9035   21.6295 H   0  0  0  0  0  0  0  0  0  0  0  0
   -2.0304  -20.1939   17.0530 H   0  0  0  0  0  0  0  0  0  0  0  0
   -3.6463  -21.2351   15.6788 H   0  0  0  0  0  0  0  0  0  0  0  0
   -4.7129  -20.5316   16.9060 H   0  0  0  0  0  0  0  0  0  0  0  0
   -4.8316  -23.1763   16.3595 H   0  0  0  0  0  0  0  0  0  0  0  0
   -4.9511  -22.6279   18.0314 H   0  0  0  0  0  0  0  0  0  0  0  0
   -2.7221  -24.1116   16.7599 H   0  0  0  0  0  0  0  0  0  0  0  0
   -3.0851  -23.8880   18.4704 H   0  0  0  0  0  0  0  0  0  0  0  0
   -1.2536  -22.4119   18.4586 H   0  0  0  0  0  0  0  0  0  0  0  0
   -1.2725  -22.3570   16.6963 H   0  0  0  0  0  0  0  0  0  0  0  0
    1.8918  -13.0957   17.8713 H   0  0  0  0  0  0  0  0  0  0  0  0
    5.5732  -10.7732   19.2575 H   0  0  0  0  0  0  0  0  0  0  0  0
    4.6138  -10.4358   16.0204 H   0  0  0  0  0  0  0  0  0  0  0  0
    2.9160  -12.2048   16.6744 H   0  0  0  0  0  0  0  0  0  0  0  0
  1  2  1  0
  2  3  1  0
  3  4  1  0
  4  5  1  0
  4  6  1  0
  6  7  2  0
  6  8  1  0
  8  9  2  0
  9 10  1  0
 10 11  2  0
 11 12  1  0
 12 13  1  0
 13 14  1  0
 14 15  1  0
 15 16  1  0
 16 17  1  0
  2 18  1  0
 18 19  1  0
 19 20  2  0
 19 21  1  0
 21 22  1  0
 22 23  2  0
 23 24  1  0
 24 25  1  0
 12  8  1  0
 17 13  1  0
 25 21  2  0
  1 26  1  0
  1 27  1  0
  1 28  1  0
  2 29  1  0
  3 30  1  0
  3 31  1  0
  5 32  1  0
  5 33  1  0
  5 34  1  0
  9 35  1  0
 10 36  1  0
 13 37  1  0
 14 38  1  0
 14 39  1  0
 15 40  1  0
 15 41  1  0
 16 42  1  0
 16 43  1  0
 17 44  1  0
 17 45  1  0
 18 46  1  0
 22 47  1  0
 24 48  1  0
 25 49  1  0
M  END
>  <Energy>  (855) 
572.08886264243517

>  <compound_id>  (855) 
28373

>  <target_id>  (855) 
1

>  <reference_id>  (855) 
96

>  <inspiration_ids>  (855) 
[96, 81]

>  <energy_score>  (855) 
542.5256330941163

>  <distance_score>  (855) 
12.329919765790716

>  <path>  (855) 
/opt/xchem-fragalysis-2/maxwin/BulkDock/SCRATCH/511023/C28373-P96/C28373-P96.minimised.mol

>  <scratch_subdir>  (855) 
/opt/xchem-fragalysis-2/maxwin/BulkDock/SCRATCH/511023/C28373-P96

>  <fragmenstein_runtime>  (855) 
44.816981077194214

>  <fragmenstein_outcome>  (855) 
too moved

>  <fragmenstein_mode>  (855) 
expansion

>  <fragmenstein_error>  (855) 


$$$$
C28373-P81
     RDKit          3D

 49 51  0  0  0  0  0  0  0  0999 V2000
    3.1430  -22.0564   14.4200 C   0  0  0  0  0  0  0  0  0  0  0  0
    3.3157  -20.8985   15.4030 C   0  0  0  0  0  0  0  0  0  0  0  0
    2.1123  -20.6972   16.4699 C   0  0  0  0  0  0  0  0  0  0  0  0
    0.5658  -20.8888   16.2845 N   0  0  0  0  0  0  0  0  0  0  0  0
    0.8096  -20.0069   15.1385 C   0  0  0  0  0  0  0  0  0  0  0  0
   -0.1216  -20.6425   17.5332 C   0  0  0  0  0  0  0  0  0  0  0  0
   -0.5857  -19.6267   17.9800 O   0  0  0  0  0  0  0  0  0  0  0  0
   -0.3843  -21.8488   18.3433 C   0  0  0  0  0  0  0  0  0  0  0  0
   -0.8763  -23.0861   17.9503 C   0  0  0  0  0  0  0  0  0  0  0  0
   -1.3418  -23.7186   19.1220 C   0  0  0  0  0  0  0  0  0  0  0  0
   -1.1120  -22.9903   20.2094 N   0  0  0  0  0  0  0  0  0  0  0  0
   -0.4967  -21.8798   19.7277 N   0  0  0  0  0  0  0  0  0  0  0  0
   -0.0163  -20.8690   20.6626 C   0  0  0  0  0  0  0  0  0  0  0  0
   -1.1718  -20.0615   21.2456 C   0  0  0  0  0  0  0  0  0  0  0  0
   -1.5478  -20.8067   22.5180 C   0  0  0  0  0  0  0  0  0  0  0  0
   -0.2177  -21.2856   23.0793 C   0  0  0  0  0  0  0  0  0  0  0  0
    0.7141  -21.4642   21.8792 C   0  0  0  0  0  0  0  0  0  0  0  0
    3.9543  -19.6985   14.7606 N   0  0  0  0  0  0  0  0  0  0  0  0
    5.3291  -19.4509   14.3679 C   0  0  0  0  0  0  0  0  0  0  0  0
    6.2841  -20.1689   14.3844 O   0  0  0  0  0  0  0  0  0  0  0  0
    5.6501  -18.0482   13.9688 C   0  0  0  0  0  0  0  0  0  0  0  0
    6.6283  -17.1857   14.5696 C   0  0  0  0  0  0  0  0  0  0  0  0
    6.7516  -15.9956   13.9701 N   0  0  0  0  0  0  0  0  0  0  0  0
    6.0735  -16.1884   12.8268 N   0  0  0  0  0  0  0  0  0  0  0  0
    5.3194  -17.3391   12.8314 C   0  0  0  0  0  0  0  0  0  0  0  0
    4.1234  -22.4114   14.0812 H   0  0  0  0  0  0  0  0  0  0  0  0
    2.6293  -22.8997   14.8919 H   0  0  0  0  0  0  0  0  0  0  0  0
    2.5975  -21.7686   13.5176 H   0  0  0  0  0  0  0  0  0  0  0  0
    4.1376  -21.2370   16.0519 H   0  0  0  0  0  0  0  0  0  0  0  0
    2.2755  -19.7618   17.0283 H   0  0  0  0  0  0  0  0  0  0  0  0
    2.3218  -21.4694   17.2285 H   0  0  0  0  0  0  0  0  0  0  0  0
    1.2731  -19.0510   15.3755 H   0  0  0  0  0  0  0  0  0  0  0  0
    1.1765  -20.5126   14.2480 H   0  0  0  0  0  0  0  0  0  0  0  0
   -0.2056  -19.7127   14.8345 H   0  0  0  0  0  0  0  0  0  0  0  0
   -0.9939  -23.4279   16.9318 H   0  0  0  0  0  0  0  0  0  0  0  0
   -1.8456  -24.6715   19.2198 H   0  0  0  0  0  0  0  0  0  0  0  0
    0.6752  -20.2263   20.1080 H   0  0  0  0  0  0  0  0  0  0  0  0
   -2.0255  -19.9557   20.5685 H   0  0  0  0  0  0  0  0  0  0  0  0
   -0.8098  -19.0591   21.4839 H   0  0  0  0  0  0  0  0  0  0  0  0
   -2.0924  -20.1788   23.2277 H   0  0  0  0  0  0  0  0  0  0  0  0
   -2.1907  -21.6630   22.2866 H   0  0  0  0  0  0  0  0  0  0  0  0
    0.1967  -20.5345   23.7612 H   0  0  0  0  0  0  0  0  0  0  0  0
   -0.3312  -22.2135   23.6487 H   0  0  0  0  0  0  0  0  0  0  0  0
    1.6492  -20.9228   22.0621 H   0  0  0  0  0  0  0  0  0  0  0  0
    0.9896  -22.5159   21.7435 H   0  0  0  0  0  0  0  0  0  0  0  0
    3.3880  -18.8773   14.5308 H   0  0  0  0  0  0  0  0  0  0  0  0
    7.2456  -17.3975   15.4323 H   0  0  0  0  0  0  0  0  0  0  0  0
    6.1402  -15.4849   12.0965 H   0  0  0  0  0  0  0  0  0  0  0  0
    4.6876  -17.5918   11.9908 H   0  0  0  0  0  0  0  0  0  0  0  0
  1  2  1  0
  2  3  1  0
  3  4  1  0
  4  5  1  0
  4  6  1  0
  6  7  2  0
  6  8  1  0
  8  9  2  0
  9 10  1  0
 10 11  2  0
 11 12  1  0
 12 13  1  0
 13 14  1  0
 14 15  1  0
 15 16  1  0
 16 17  1  0
  2 18  1  0
 18 19  1  0
 19 20  2  0
 19 21  1  0
 21 22  1  0
 22 23  2  0
 23 24  1  0
 24 25  1  0
 12  8  1  0
 17 13  1  0
 25 21  2  0
  1 26  1  0
  1 27  1  0
  1 28  1  0
  2 29  1  0
  3 30  1  0
  3 31  1  0
  5 32  1  0
  5 33  1  0
  5 34  1  0
  9 35  1  0
 10 36  1  0
 13 37  1  0
 14 38  1  0
 14 39  1  0
 15 40  1  0
 15 41  1  0
 16 42  1  0
 16 43  1  0
 17 44  1  0
 17 45  1  0
 18 46  1  0
 22 47  1  0
 24 48  1  0
 25 49  1  0
M  END
>  <Energy>  (856) 
99.586431634218329

>  <compound_id>  (856) 
28373

>  <target_id>  (856) 
1

>  <reference_id>  (856) 
81

>  <inspiration_ids>  (856) 
[96, 81]

>  <energy_score>  (856) 
70.02320208590618

>  <distance_score>  (856) 
15.182728353993602

>  <path>  (856) 
/opt/xchem-fragalysis-2/maxwin/BulkDock/SCRATCH/511023/C28373-P81/C28373-P81.minimised.mol

>  <scratch_subdir>  (856) 
/opt/xchem-fragalysis-2/maxwin/BulkDock/SCRATCH/511023/C28373-P81

>  <fragmenstein_runtime>  (856) 
60.446757078170776

>  <fragmenstein_outcome>  (856) 
too moved

>  <fragmenstein_mode>  (856) 
expansion

>  <fragmenstein_error>  (856) 


$$$$
C18705-P96
     RDKit          3D

 49 51  0  0  0  0  0  0  0  0999 V2000
    3.4358  -12.8769   22.6679 C   0  0  0  0  0  0  0  0  0  0  0  0
    3.0620  -14.1041   21.6495 C   0  0  0  0  0  0  0  0  0  0  0  0
    3.0249  -16.2952   21.9597 C   0  0  0  0  0  0  0  0  0  0  0  0
    2.3810  -18.2643   21.6512 N   0  0  0  0  0  0  0  0  0  0  0  0
    2.3624  -17.8899   20.3430 C   0  0  0  0  0  0  0  0  0  0  0  0
    1.0099  -18.9622   21.9964 C   0  0  0  0  0  0  0  0  0  0  0  0
    0.0064  -18.4325   22.4314 O   0  0  0  0  0  0  0  0  0  0  0  0
    1.0119  -20.7518   21.8411 C   0  0  0  0  0  0  0  0  0  0  0  0
    1.8771  -21.5781   21.1283 C   0  0  0  0  0  0  0  0  0  0  0  0
    1.7009  -22.8755   21.6111 C   0  0  0  0  0  0  0  0  0  0  0  0
    0.7545  -22.9375   22.5302 N   0  0  0  0  0  0  0  0  0  0  0  0
    0.1582  -21.7065   22.4702 N   0  0  0  0  0  0  0  0  0  0  0  0
   -1.2249  -21.8179   22.8891 C   0  0  0  0  0  0  0  0  0  0  0  0
   -1.3939  -22.3704   24.3187 C   0  0  0  0  0  0  0  0  0  0  0  0
   -2.8875  -22.2972   24.5519 C   0  0  0  0  0  0  0  0  0  0  0  0
   -3.3130  -21.0188   23.8606 C   0  0  0  0  0  0  0  0  0  0  0  0
   -2.2780  -20.7347   22.7683 C   0  0  0  0  0  0  0  0  0  0  0  0
    2.5649  -13.0255   19.9716 N   0  0  0  0  0  0  0  0  0  0  0  0
    3.6723  -11.9661   18.7596 C   0  0  0  0  0  0  0  0  0  0  0  0
    4.8346  -11.7396   18.9725 O   0  0  0  0  0  0  0  0  0  0  0  0
    3.3391  -11.4722   17.4124 C   0  0  0  0  0  0  0  0  0  0  0  0
    4.6354  -10.8241   16.7405 C   0  0  0  0  0  0  0  0  0  0  0  0
    4.6016  -11.0502   15.3961 C   0  0  0  0  0  0  0  0  0  0  0  0
    3.4827  -11.7919   15.2266 N   0  0  0  0  0  0  0  0  0  0  0  0
    2.8569  -12.2235   16.3468 N   0  0  0  0  0  0  0  0  0  0  0  0
    2.8090  -12.0284   22.3666 H   0  0  0  0  0  0  0  0  0  0  0  0
    4.4870  -12.8814   22.7476 H   0  0  0  0  0  0  0  0  0  0  0  0
    3.4585  -12.8142   23.7657 H   0  0  0  0  0  0  0  0  0  0  0  0
    4.0843  -14.2027   21.8836 H   0  0  0  0  0  0  0  0  0  0  0  0
    2.9248  -16.3321   23.0855 H   0  0  0  0  0  0  0  0  0  0  0  0
    3.8131  -16.9894   21.4874 H   0  0  0  0  0  0  0  0  0  0  0  0
    3.1930  -17.6751   19.7818 H   0  0  0  0  0  0  0  0  0  0  0  0
    1.2958  -17.7840   20.2116 H   0  0  0  0  0  0  0  0  0  0  0  0
    2.2236  -18.8481   19.7729 H   0  0  0  0  0  0  0  0  0  0  0  0
    2.5950  -21.2734   20.3874 H   0  0  0  0  0  0  0  0  0  0  0  0
    2.2443  -23.7721   21.3458 H   0  0  0  0  0  0  0  0  0  0  0  0
   -1.6064  -22.6136   22.2240 H   0  0  0  0  0  0  0  0  0  0  0  0
   -1.0375  -23.4013   24.4194 H   0  0  0  0  0  0  0  0  0  0  0  0
   -0.8621  -21.7726   25.0618 H   0  0  0  0  0  0  0  0  0  0  0  0
   -3.1410  -22.2922   25.6150 H   0  0  0  0  0  0  0  0  0  0  0  0
   -3.3826  -23.1552   24.0830 H   0  0  0  0  0  0  0  0  0  0  0  0
   -3.3350  -20.1890   24.5759 H   0  0  0  0  0  0  0  0  0  0  0  0
   -4.3175  -21.1281   23.4440 H   0  0  0  0  0  0  0  0  0  0  0  0
   -1.9002  -19.7319   22.9007 H   0  0  0  0  0  0  0  0  0  0  0  0
   -2.7434  -20.7771   21.7779 H   0  0  0  0  0  0  0  0  0  0  0  0
    1.6183  -13.0193   19.6454 H   0  0  0  0  0  0  0  0  0  0  0  0
    5.4162  -10.3300   17.3014 H   0  0  0  0  0  0  0  0  0  0  0  0
    5.2521  -10.7753   14.5805 H   0  0  0  0  0  0  0  0  0  0  0  0
    3.1366  -12.1486   14.3455 H   0  0  0  0  0  0  0  0  0  0  0  0
  1  2  1  0
  2  3  1  0
  3  4  1  0
  4  5  1  0
  4  6  1  0
  6  7  2  0
  6  8  1  0
  8  9  2  0
  9 10  1  0
 10 11  2  0
 11 12  1  0
 12 13  1  0
 13 14  1  0
 14 15  1  0
 15 16  1  0
 16 17  1  0
  2 18  1  0
 18 19  1  0
 19 20  2  0
 19 21  1  0
 21 22  1  0
 22 23  2  0
 23 24  1  0
 24 25  1  0
 12  8  1  0
 17 13  1  0
 25 21  2  0
  1 26  1  0
  1 27  1  0
  1 28  1  0
  2 29  1  0
  3 30  1  0
  3 31  1  0
  5 32  1  0
  5 33  1  0
  5 34  1  0
  9 35  1  0
 10 36  1  0
 13 37  1  0
 14 38  1  0
 14 39  1  0
 15 40  1  0
 15 41  1  0
 16 42  1  0
 16 43  1  0
 17 44  1  0
 17 45  1  0
 18 46  1  0
 22 47  1  0
 23 48  1  0
 24 49  1  0
M  END
>  <Energy>  (857) 
804.3710430407998

>  <compound_id>  (857) 
18705

>  <target_id>  (857) 
1

>  <reference_id>  (857) 
96

>  <inspiration_ids>  (857) 
[96, 81]

>  <energy_score>  (857) 
724.3051553365021

>  <distance_score>  (857) 
13.650120832108206

>  <path>  (857) 
/opt/xchem-fragalysis-2/maxwin/BulkDock/SCRATCH/511023/C18705-P96/C18705-P96.minimised.mol

>  <scratch_subdir>  (857) 
/opt/xchem-fragalysis-2/maxwin/BulkDock/SCRATCH/511023/C18705-P96

>  <fragmenstein_runtime>  (857) 
31.773406505584717

>  <fragmenstein_outcome>  (857) 
too moved

>  <fragmenstein_mode>  (857) 
expansion

>  <fragmenstein_error>  (857) 


$$$$
C18705-P81
     RDKit          3D

 49 51  0  0  0  0  0  0  0  0999 V2000
   -0.6123  -14.3087   24.1124 C   0  0  0  0  0  0  0  0  0  0  0  0
   -1.3129  -14.5054   22.9099 C   0  0  0  0  0  0  0  0  0  0  0  0
   -3.4527  -14.6378   23.6038 C   0  0  0  0  0  0  0  0  0  0  0  0
   -5.0088  -15.6423   24.3891 N   0  0  0  0  0  0  0  0  0  0  0  0
   -3.3056  -16.1540   25.2066 C   0  0  0  0  0  0  0  0  0  0  0  0
   -6.8146  -15.0512   25.3326 C   0  0  0  0  0  0  0  0  0  0  0  0
   -7.0664  -13.8497   25.5981 O   0  0  0  0  0  0  0  0  0  0  0  0
   -8.2391  -16.1977   26.0887 C   0  0  0  0  0  0  0  0  0  0  0  0
   -9.0042  -15.2878   26.8154 C   0  0  0  0  0  0  0  0  0  0  0  0
  -10.2269  -15.8720   26.9448 C   0  0  0  0  0  0  0  0  0  0  0  0
  -10.1996  -17.1620   26.8136 N   0  0  0  0  0  0  0  0  0  0  0  0
   -8.9724  -17.5970   27.0886 N   0  0  0  0  0  0  0  0  0  0  0  0
   -9.1237  -19.2758   28.0461 C   0  0  0  0  0  0  0  0  0  0  0  0
  -10.3789  -20.5831   29.2074 C   0  0  0  0  0  0  0  0  0  0  0  0
  -11.1098  -21.9404   28.9228 C   0  0  0  0  0  0  0  0  0  0  0  0
  -10.2421  -22.4314   27.9236 C   0  0  0  0  0  0  0  0  0  0  0  0
   -9.4306  -21.0460   27.4610 C   0  0  0  0  0  0  0  0  0  0  0  0
   -0.4783  -12.6544   22.5733 N   0  0  0  0  0  0  0  0  0  0  0  0
   -1.1337  -11.2464   21.5627 C   0  0  0  0  0  0  0  0  0  0  0  0
   -2.1236  -11.2597   20.8578 O   0  0  0  0  0  0  0  0  0  0  0  0
   -0.5802   -9.8854   21.6226 C   0  0  0  0  0  0  0  0  0  0  0  0
    0.4640   -9.0499   21.2888 C   0  0  0  0  0  0  0  0  0  0  0  0
    0.2665   -7.8693   21.9417 C   0  0  0  0  0  0  0  0  0  0  0  0
   -0.9318   -7.9849   22.5364 N   0  0  0  0  0  0  0  0  0  0  0  0
   -1.5505   -9.0676   22.1177 N   0  0  0  0  0  0  0  0  0  0  0  0
   -1.1218  -15.1626   24.4286 H   0  0  0  0  0  0  0  0  0  0  0  0
    0.3531  -14.1457   24.5860 H   0  0  0  0  0  0  0  0  0  0  0  0
    0.2549  -14.1917   23.4821 H   0  0  0  0  0  0  0  0  0  0  0  0
   -0.9745  -14.9354   22.0042 H   0  0  0  0  0  0  0  0  0  0  0  0
   -2.8801  -14.6494   24.4739 H   0  0  0  0  0  0  0  0  0  0  0  0
   -3.6074  -15.5182   23.0631 H   0  0  0  0  0  0  0  0  0  0  0  0
   -3.1497  -16.8864   26.0353 H   0  0  0  0  0  0  0  0  0  0  0  0
   -2.5985  -16.4937   24.5557 H   0  0  0  0  0  0  0  0  0  0  0  0
   -2.6450  -15.3479   25.7111 H   0  0  0  0  0  0  0  0  0  0  0  0
   -8.7971  -14.2446   26.9981 H   0  0  0  0  0  0  0  0  0  0  0  0
  -11.1494  -15.3804   27.2347 H   0  0  0  0  0  0  0  0  0  0  0  0
   -8.1949  -19.0660   28.4944 H   0  0  0  0  0  0  0  0  0  0  0  0
  -10.1910  -20.7582   30.2782 H   0  0  0  0  0  0  0  0  0  0  0  0
  -11.4780  -20.3352   29.1170 H   0  0  0  0  0  0  0  0  0  0  0  0
  -11.2509  -22.5654   29.8128 H   0  0  0  0  0  0  0  0  0  0  0  0
  -12.1236  -21.8563   28.5057 H   0  0  0  0  0  0  0  0  0  0  0  0
   -9.5819  -23.2825   28.1001 H   0  0  0  0  0  0  0  0  0  0  0  0
  -10.8927  -22.8252   27.1210 H   0  0  0  0  0  0  0  0  0  0  0  0
  -10.1619  -20.9475   26.6637 H   0  0  0  0  0  0  0  0  0  0  0  0
   -8.3359  -21.3948   27.2902 H   0  0  0  0  0  0  0  0  0  0  0  0
    0.3114  -12.3371   23.1281 H   0  0  0  0  0  0  0  0  0  0  0  0
    1.2771   -9.2831   20.6659 H   0  0  0  0  0  0  0  0  0  0  0  0
    0.7225   -6.9069   21.8976 H   0  0  0  0  0  0  0  0  0  0  0  0
   -1.4572   -7.3305   23.1152 H   0  0  0  0  0  0  0  0  0  0  0  0
  1  2  1  0
  2  3  1  0
  3  4  1  0
  4  5  1  0
  4  6  1  0
  6  7  2  0
  6  8  1  0
  8  9  2  0
  9 10  1  0
 10 11  2  0
 11 12  1  0
 12 13  1  0
 13 14  1  0
 14 15  1  0
 15 16  1  0
 16 17  1  0
  2 18  1  0
 18 19  1  0
 19 20  2  0
 19 21  1  0
 21 22  1  0
 22 23  2  0
 23 24  1  0
 24 25  1  0
 12  8  1  0
 17 13  1  0
 25 21  2  0
  1 26  1  0
  1 27  1  0
  1 28  1  0
  2 29  1  0
  3 30  1  0
  3 31  1  0
  5 32  1  0
  5 33  1  0
  5 34  1  0
  9 35  1  0
 10 36  1  0
 13 37  1  0
 14 38  1  0
 14 39  1  0
 15 40  1  0
 15 41  1  0
 16 42  1  0
 16 43  1  0
 17 44  1  0
 17 45  1  0
 18 46  1  0
 22 47  1  0
 23 48  1  0
 24 49  1  0
M  END
>  <Energy>  (858) 
1737.6611823144656

>  <compound_id>  (858) 
18705

>  <target_id>  (858) 
1

>  <reference_id>  (858) 
81

>  <inspiration_ids>  (858) 
[96, 81]

>  <energy_score>  (858) 
1657.5952946102084

>  <distance_score>  (858) 
12.732555219366816

>  <path>  (858) 
/opt/xchem-fragalysis-2/maxwin/BulkDock/SCRATCH/511023/C18705-P81/C18705-P81.minimised.mol

>  <scratch_subdir>  (858) 
/opt/xchem-fragalysis-2/maxwin/BulkDock/SCRATCH/511023/C18705-P81

>  <fragmenstein_runtime>  (858) 
39.81941342353821

>  <fragmenstein_outcome>  (858) 
too moved

>  <fragmenstein_mode>  (858) 
expansion

>  <fragmenstein_error>  (858) 


$$$$
C18706-P96
     RDKit          3D

 33 35  0  0  0  0  0  0  0  0999 V2000
    2.3458  -12.6066   28.6776 O   0  0  0  0  0  0  0  0  0  0  0  0
    2.4342  -13.4339   27.8136 C   0  0  0  0  0  0  0  0  0  0  0  0
    3.3153  -13.5134   26.6707 N   0  0  0  0  0  0  0  0  0  0  0  0
    4.2570  -12.6148   26.1797 C   0  0  0  0  0  0  0  0  0  0  0  0
    4.9971  -12.7242   24.9741 C   0  0  0  0  0  0  0  0  0  0  0  0
    5.7681  -11.6605   24.7098 N   0  0  0  0  0  0  0  0  0  0  0  0
    5.5626  -10.8582   25.7761 N   0  0  0  0  0  0  0  0  0  0  0  0
    6.3471   -9.6476   25.9388 C   0  0  0  0  0  0  0  0  0  0  0  0
    6.9105   -9.0677   24.6317 C   0  0  0  0  0  0  0  0  0  0  0  0
    7.1518   -7.6047   24.9580 C   0  0  0  0  0  0  0  0  0  0  0  0
    5.9199   -7.2308   25.7617 C   0  0  0  0  0  0  0  0  0  0  0  0
    5.6060   -8.4679   26.6010 C   0  0  0  0  0  0  0  0  0  0  0  0
    4.6701  -11.3974   26.6769 C   0  0  0  0  0  0  0  0  0  0  0  0
    1.4367  -14.5883   27.8248 C   0  0  0  0  0  0  0  0  0  0  0  0
    0.3572  -14.7875   28.7509 C   0  0  0  0  0  0  0  0  0  0  0  0
   -0.3091  -15.9198   28.3439 C   0  0  0  0  0  0  0  0  0  0  0  0
    0.3559  -16.3488   27.2378 N   0  0  0  0  0  0  0  0  0  0  0  0
    1.4217  -15.5832   26.9057 N   0  0  0  0  0  0  0  0  0  0  0  0
    3.1636  -14.4009   26.1962 H   0  0  0  0  0  0  0  0  0  0  0  0
    4.9781  -13.5441   24.2674 H   0  0  0  0  0  0  0  0  0  0  0  0
    7.1877   -9.9374   26.5844 H   0  0  0  0  0  0  0  0  0  0  0  0
    6.1876   -9.1504   23.8111 H   0  0  0  0  0  0  0  0  0  0  0  0
    7.8296   -9.5739   24.3191 H   0  0  0  0  0  0  0  0  0  0  0  0
    8.0549   -7.4936   25.5694 H   0  0  0  0  0  0  0  0  0  0  0  0
    7.2653   -6.9905   24.0602 H   0  0  0  0  0  0  0  0  0  0  0  0
    5.0822   -7.0223   25.0855 H   0  0  0  0  0  0  0  0  0  0  0  0
    6.0797   -6.3416   26.3785 H   0  0  0  0  0  0  0  0  0  0  0  0
    5.9799   -8.3319   27.6230 H   0  0  0  0  0  0  0  0  0  0  0  0
    4.5234   -8.6065   26.6735 H   0  0  0  0  0  0  0  0  0  0  0  0
    4.4017  -10.8785   27.5862 H   0  0  0  0  0  0  0  0  0  0  0  0
    0.1147  -14.1531   29.5930 H   0  0  0  0  0  0  0  0  0  0  0  0
   -1.1756  -16.4366   28.7306 H   0  0  0  0  0  0  0  0  0  0  0  0
    0.1497  -17.1574   26.6598 H   0  0  0  0  0  0  0  0  0  0  0  0
  1  2  2  0
  2  3  1  0
  3  4  1  0
  4  5  1  0
  5  6  2  0
  6  7  1  0
  7  8  1  0
  8  9  1  0
  9 10  1  0
 10 11  1  0
 11 12  1  0
  7 13  1  0
  2 14  1  0
 14 15  1  0
 15 16  2  0
 16 17  1  0
 17 18  1  0
 13  4  2  0
 18 14  2  0
 12  8  1  0
  3 19  1  0
  5 20  1  0
  8 21  1  0
  9 22  1  0
  9 23  1  0
 10 24  1  0
 10 25  1  0
 11 26  1  0
 11 27  1  0
 12 28  1  0
 12 29  1  0
 13 30  1  0
 15 31  1  0
 16 32  1  0
 17 33  1  0
M  END
>  <Energy>  (859) 
50.078026992924627

>  <compound_id>  (859) 
18706

>  <target_id>  (859) 
1

>  <reference_id>  (859) 
96

>  <inspiration_ids>  (859) 
[96, 81]

>  <energy_score>  (859) 
-50.78787065704

>  <distance_score>  (859) 
15.367459651659816

>  <path>  (859) 
/opt/xchem-fragalysis-2/maxwin/BulkDock/SCRATCH/511023/C18706-P96/C18706-P96.minimised.mol

>  <scratch_subdir>  (859) 
/opt/xchem-fragalysis-2/maxwin/BulkDock/SCRATCH/511023/C18706-P96

>  <fragmenstein_runtime>  (859) 
9.641900777816772

>  <fragmenstein_outcome>  (859) 
too moved

>  <fragmenstein_mode>  (859) 
expansion

>  <fragmenstein_error>  (859) 


$$$$
C18706-P81
     RDKit          3D

 33 35  0  0  0  0  0  0  0  0999 V2000
   -6.5230  -11.7370   21.1988 O   0  0  0  0  0  0  0  0  0  0  0  0
   -5.6155  -12.4598   20.8933 C   0  0  0  0  0  0  0  0  0  0  0  0
   -4.4168  -12.1985   20.1115 N   0  0  0  0  0  0  0  0  0  0  0  0
   -3.9246  -11.0177   19.5667 C   0  0  0  0  0  0  0  0  0  0  0  0
   -2.7743  -10.7131   18.7804 C   0  0  0  0  0  0  0  0  0  0  0  0
   -2.7371   -9.4322   18.3559 N   0  0  0  0  0  0  0  0  0  0  0  0
   -3.8505   -8.9028   18.9081 N   0  0  0  0  0  0  0  0  0  0  0  0
   -4.3562   -7.6039   18.4968 C   0  0  0  0  0  0  0  0  0  0  0  0
   -5.4287   -7.7155   17.3995 C   0  0  0  0  0  0  0  0  0  0  0  0
   -6.4674   -6.6609   17.7528 C   0  0  0  0  0  0  0  0  0  0  0  0
   -6.4659   -6.6620   19.2714 C   0  0  0  0  0  0  0  0  0  0  0  0
   -4.9871   -6.7615   19.6224 C   0  0  0  0  0  0  0  0  0  0  0  0
   -4.5341   -9.7947   19.6852 C   0  0  0  0  0  0  0  0  0  0  0  0
   -5.6892  -13.8823   21.4046 C   0  0  0  0  0  0  0  0  0  0  0  0
   -6.7069  -14.4270   22.2611 C   0  0  0  0  0  0  0  0  0  0  0  0
   -6.3527  -15.7316   22.5061 C   0  0  0  0  0  0  0  0  0  0  0  0
   -5.1971  -15.9258   21.8127 N   0  0  0  0  0  0  0  0  0  0  0  0
   -4.7638  -14.8293   21.1453 N   0  0  0  0  0  0  0  0  0  0  0  0
   -3.9067  -13.0709   19.9834 H   0  0  0  0  0  0  0  0  0  0  0  0
   -1.9896  -11.3886   18.4702 H   0  0  0  0  0  0  0  0  0  0  0  0
   -3.5056   -7.0494   18.1098 H   0  0  0  0  0  0  0  0  0  0  0  0
   -5.8988   -8.7065   17.3902 H   0  0  0  0  0  0  0  0  0  0  0  0
   -5.0075   -7.5474   16.4028 H   0  0  0  0  0  0  0  0  0  0  0  0
   -6.1554   -5.6808   17.3729 H   0  0  0  0  0  0  0  0  0  0  0  0
   -7.4518   -6.8922   17.3361 H   0  0  0  0  0  0  0  0  0  0  0  0
   -6.9308   -5.7642   19.6887 H   0  0  0  0  0  0  0  0  0  0  0  0
   -7.0070   -7.5362   19.6514 H   0  0  0  0  0  0  0  0  0  0  0  0
   -4.5498   -5.7549   19.6019 H   0  0  0  0  0  0  0  0  0  0  0  0
   -4.8284   -7.1592   20.6294 H   0  0  0  0  0  0  0  0  0  0  0  0
   -5.4537   -9.5161   20.1812 H   0  0  0  0  0  0  0  0  0  0  0  0
   -7.5725  -13.9003   22.6406 H   0  0  0  0  0  0  0  0  0  0  0  0
   -6.8094  -16.5182   23.0890 H   0  0  0  0  0  0  0  0  0  0  0  0
   -4.6438  -16.7754   21.7463 H   0  0  0  0  0  0  0  0  0  0  0  0
  1  2  2  0
  2  3  1  0
  3  4  1  0
  4  5  1  0
  5  6  2  0
  6  7  1  0
  7  8  1  0
  8  9  1  0
  9 10  1  0
 10 11  1  0
 11 12  1  0
  7 13  1  0
  2 14  1  0
 14 15  1  0
 15 16  2  0
 16 17  1  0
 17 18  1  0
 13  4  2  0
 18 14  2  0
 12  8  1  0
  3 19  1  0
  5 20  1  0
  8 21  1  0
  9 22  1  0
  9 23  1  0
 10 24  1  0
 10 25  1  0
 11 26  1  0
 11 27  1  0
 12 28  1  0
 12 29  1  0
 13 30  1  0
 15 31  1  0
 16 32  1  0
 17 33  1  0
M  END
>  <Energy>  (860) 
50.591698425902592

>  <compound_id>  (860) 
18706

>  <target_id>  (860) 
1

>  <reference_id>  (860) 
81

>  <inspiration_ids>  (860) 
[96, 81]

>  <energy_score>  (860) 
-50.274199224064205

>  <distance_score>  (860) 
15.65295827482456

>  <path>  (860) 
/opt/xchem-fragalysis-2/maxwin/BulkDock/SCRATCH/511023/C18706-P81/C18706-P81.minimised.mol

>  <scratch_subdir>  (860) 
/opt/xchem-fragalysis-2/maxwin/BulkDock/SCRATCH/511023/C18706-P81

>  <fragmenstein_runtime>  (860) 
29.547595024108887

>  <fragmenstein_outcome>  (860) 
too moved

>  <fragmenstein_mode>  (860) 
expansion

>  <fragmenstein_error>  (860) 


$$$$
C28376-P96
     RDKit          3D

 50 52  0  0  0  0  0  0  0  0999 V2000
    2.1459  -10.5908   20.8827 C   0  0  0  0  0  0  0  0  0  0  0  0
    2.5576  -11.6485   19.9347 C   0  0  0  0  0  0  0  0  0  0  0  0
    2.6083  -12.9455   21.3796 N   0  0  0  0  0  0  0  0  0  0  0  0
    3.7654  -13.0283   22.7487 C   0  0  0  0  0  0  0  0  0  0  0  0
    4.1304  -13.8982   24.2532 C   0  0  0  0  0  0  0  0  0  0  0  0
    4.3209  -13.2744   25.5316 C   0  0  0  0  0  0  0  0  0  0  0  0
    4.1479  -14.2671   26.4762 C   0  0  0  0  0  0  0  0  0  0  0  0
    3.9376  -15.4169   25.7799 N   0  0  0  0  0  0  0  0  0  0  0  0
    3.7757  -16.7480   26.3341 C   0  0  0  0  0  0  0  0  0  0  0  0
    5.0333  -17.6232   26.1820 C   0  0  0  0  0  0  0  0  0  0  0  0
    4.5731  -18.8954   25.4766 C   0  0  0  0  0  0  0  0  0  0  0  0
    3.0966  -19.0001   25.8176 C   0  0  0  0  0  0  0  0  0  0  0  0
    2.6249  -17.5582   25.7203 C   0  0  0  0  0  0  0  0  0  0  0  0
    4.0014  -15.2299   24.4477 N   0  0  0  0  0  0  0  0  0  0  0  0
    4.0106  -11.1985   18.7539 C   0  0  0  0  0  0  0  0  0  0  0  0
    3.6949  -11.8395   17.4606 C   0  0  0  0  0  0  0  0  0  0  0  0
    5.3680  -10.6615   18.1675 N   0  0  0  0  0  0  0  0  0  0  0  0
    5.6814   -9.6338   16.9238 C   0  0  0  0  0  0  0  0  0  0  0  0
    4.8209   -9.1163   16.4019 O   0  0  0  0  0  0  0  0  0  0  0  0
    7.3269   -9.2431   15.9884 C   0  0  0  0  0  0  0  0  0  0  0  0
    7.3585   -9.2755   14.4769 C   0  0  0  0  0  0  0  0  0  0  0  0
    8.4482   -9.3539   13.7161 N   0  0  0  0  0  0  0  0  0  0  0  0
    9.3563   -9.6172   14.5963 N   0  0  0  0  0  0  0  0  0  0  0  0
    8.7939   -9.6999   15.8335 C   0  0  0  0  0  0  0  0  0  0  0  0
    1.1050  -10.4102   21.1046 H   0  0  0  0  0  0  0  0  0  0  0  0
    2.4448  -10.8516   21.8762 H   0  0  0  0  0  0  0  0  0  0  0  0
    2.5957   -9.7118   20.4485 H   0  0  0  0  0  0  0  0  0  0  0  0
    2.1364  -12.3437   19.2267 H   0  0  0  0  0  0  0  0  0  0  0  0
    1.7071  -12.6809   21.7361 H   0  0  0  0  0  0  0  0  0  0  0  0
    4.5993  -13.4544   22.2630 H   0  0  0  0  0  0  0  0  0  0  0  0
    3.6621  -12.0893   23.2799 H   0  0  0  0  0  0  0  0  0  0  0  0
    4.4401  -12.2192   25.7320 H   0  0  0  0  0  0  0  0  0  0  0  0
    4.1563  -14.2402   27.5566 H   0  0  0  0  0  0  0  0  0  0  0  0
    3.5744  -16.6150   27.4057 H   0  0  0  0  0  0  0  0  0  0  0  0
    5.4203  -17.8750   27.1770 H   0  0  0  0  0  0  0  0  0  0  0  0
    5.8474  -17.1387   25.6324 H   0  0  0  0  0  0  0  0  0  0  0  0
    4.7013  -18.7874   24.3932 H   0  0  0  0  0  0  0  0  0  0  0  0
    5.1389  -19.7748   25.7975 H   0  0  0  0  0  0  0  0  0  0  0  0
    2.9654  -19.3769   26.8386 H   0  0  0  0  0  0  0  0  0  0  0  0
    2.5571  -19.6611   25.1334 H   0  0  0  0  0  0  0  0  0  0  0  0
    1.6819  -17.3970   26.2522 H   0  0  0  0  0  0  0  0  0  0  0  0
    2.4575  -17.3046   24.6676 H   0  0  0  0  0  0  0  0  0  0  0  0
    3.7421  -10.1725   18.8379 H   0  0  0  0  0  0  0  0  0  0  0  0
    3.7470  -11.0787   16.7382 H   0  0  0  0  0  0  0  0  0  0  0  0
    4.5239  -12.5019   17.2780 H   0  0  0  0  0  0  0  0  0  0  0  0
    2.8462  -12.4307   17.1480 H   0  0  0  0  0  0  0  0  0  0  0  0
    6.2483  -10.9577   18.5569 H   0  0  0  0  0  0  0  0  0  0  0  0
    6.5433   -9.3398   13.8265 H   0  0  0  0  0  0  0  0  0  0  0  0
   10.2816   -9.8974   14.2774 H   0  0  0  0  0  0  0  0  0  0  0  0
    9.4504  -10.2809   16.4843 H   0  0  0  0  0  0  0  0  0  0  0  0
  1  2  1  0
  2  3  1  0
  3  4  1  0
  4  5  1  0
  5  6  1  0
  6  7  2  0
  7  8  1  0
  8  9  1  0
  9 10  1  0
 10 11  1  0
 11 12  1  0
 12 13  1  0
  8 14  1  0
  2 15  1  0
 15 16  1  0
 15 17  1  0
 17 18  1  0
 18 19  2  0
 18 20  1  0
 20 21  1  0
 21 22  2  0
 22 23  1  0
 23 24  1  0
 14  5  2  0
 24 20  2  0
 13  9  1  0
  1 25  1  0
  1 26  1  0
  1 27  1  0
  2 28  1  0
  3 29  1  0
  4 30  1  0
  4 31  1  0
  6 32  1  0
  7 33  1  0
  9 34  1  0
 10 35  1  0
 10 36  1  0
 11 37  1  0
 11 38  1  0
 12 39  1  0
 12 40  1  0
 13 41  1  0
 13 42  1  0
 15 43  1  0
 16 44  1  0
 16 45  1  0
 16 46  1  0
 17 47  1  0
 21 48  1  0
 23 49  1  0
 24 50  1  0
M  END
>  <Energy>  (861) 
527.10956838416564

>  <compound_id>  (861) 
28376

>  <target_id>  (861) 
1

>  <reference_id>  (861) 
96

>  <inspiration_ids>  (861) 
[96, 81]

>  <energy_score>  (861) 
444.4823708048524

>  <distance_score>  (861) 
14.529032703773801

>  <path>  (861) 
/opt/xchem-fragalysis-2/maxwin/BulkDock/SCRATCH/511023/C28376-P96/C28376-P96.minimised.mol

>  <scratch_subdir>  (861) 
/opt/xchem-fragalysis-2/maxwin/BulkDock/SCRATCH/511023/C28376-P96

>  <fragmenstein_runtime>  (861) 
25.32527995109558

>  <fragmenstein_outcome>  (861) 
too moved

>  <fragmenstein_mode>  (861) 
expansion

>  <fragmenstein_error>  (861) 


$$$$
C28376-P81
     RDKit          3D

 50 52  0  0  0  0  0  0  0  0999 V2000
   -2.0780  -14.2260   16.7108 C   0  0  0  0  0  0  0  0  0  0  0  0
   -1.2269  -14.0274   17.9504 C   0  0  0  0  0  0  0  0  0  0  0  0
   -1.6537  -15.5543   18.9479 N   0  0  0  0  0  0  0  0  0  0  0  0
   -2.7775  -16.4676   19.3681 C   0  0  0  0  0  0  0  0  0  0  0  0
   -2.7843  -17.9414   19.8672 C   0  0  0  0  0  0  0  0  0  0  0  0
   -3.9887  -18.7335   19.8319 C   0  0  0  0  0  0  0  0  0  0  0  0
   -3.7548  -19.8439   20.5978 C   0  0  0  0  0  0  0  0  0  0  0  0
   -2.4719  -19.7151   21.0383 N   0  0  0  0  0  0  0  0  0  0  0  0
   -1.7737  -20.6360   21.9274 C   0  0  0  0  0  0  0  0  0  0  0  0
   -1.6365  -22.0526   21.3413 C   0  0  0  0  0  0  0  0  0  0  0  0
   -2.5632  -22.9283   22.1742 C   0  0  0  0  0  0  0  0  0  0  0  0
   -2.4727  -22.3141   23.5582 C   0  0  0  0  0  0  0  0  0  0  0  0
   -2.4772  -20.8151   23.2887 C   0  0  0  0  0  0  0  0  0  0  0  0
   -1.8581  -18.5738   20.6023 N   0  0  0  0  0  0  0  0  0  0  0  0
    0.7857  -13.2478   17.9446 C   0  0  0  0  0  0  0  0  0  0  0  0
   -0.8712  -12.0737   18.1774 C   0  0  0  0  0  0  0  0  0  0  0  0
    2.6357  -12.0034   17.9986 N   0  0  0  0  0  0  0  0  0  0  0  0
    2.8856   -9.9982   17.9668 C   0  0  0  0  0  0  0  0  0  0  0  0
    1.9317   -9.2668   17.8092 O   0  0  0  0  0  0  0  0  0  0  0  0
    4.5215   -8.8763   18.3561 C   0  0  0  0  0  0  0  0  0  0  0  0
    4.6095   -7.0485   17.9118 C   0  0  0  0  0  0  0  0  0  0  0  0
    5.2364   -6.4029   16.8966 N   0  0  0  0  0  0  0  0  0  0  0  0
    6.2205   -6.4499   17.6838 N   0  0  0  0  0  0  0  0  0  0  0  0
    5.5303   -7.4618   18.7137 C   0  0  0  0  0  0  0  0  0  0  0  0
   -1.5359  -14.2216   15.8241 H   0  0  0  0  0  0  0  0  0  0  0  0
   -2.7800  -15.0363   16.6160 H   0  0  0  0  0  0  0  0  0  0  0  0
   -2.7711  -13.4367   16.7223 H   0  0  0  0  0  0  0  0  0  0  0  0
   -1.9916  -13.5305   18.5471 H   0  0  0  0  0  0  0  0  0  0  0  0
   -0.9639  -15.7613   19.6527 H   0  0  0  0  0  0  0  0  0  0  0  0
   -3.0825  -15.9760   20.2716 H   0  0  0  0  0  0  0  0  0  0  0  0
   -3.5243  -16.5739   18.5766 H   0  0  0  0  0  0  0  0  0  0  0  0
   -4.9208  -18.4748   19.3475 H   0  0  0  0  0  0  0  0  0  0  0  0
   -4.3805  -20.6859   20.8577 H   0  0  0  0  0  0  0  0  0  0  0  0
   -0.7758  -20.2138   22.0946 H   0  0  0  0  0  0  0  0  0  0  0  0
   -1.8696  -22.1197   20.2739 H   0  0  0  0  0  0  0  0  0  0  0  0
   -0.6039  -22.3984   21.4763 H   0  0  0  0  0  0  0  0  0  0  0  0
   -2.2587  -23.9788   22.1648 H   0  0  0  0  0  0  0  0  0  0  0  0
   -3.5901  -22.8674   21.7963 H   0  0  0  0  0  0  0  0  0  0  0  0
   -1.5329  -22.6065   24.0414 H   0  0  0  0  0  0  0  0  0  0  0  0
   -3.2986  -22.6213   24.2065 H   0  0  0  0  0  0  0  0  0  0  0  0
   -1.9558  -20.2784   24.0871 H   0  0  0  0  0  0  0  0  0  0  0  0
   -3.5087  -20.4444   23.2750 H   0  0  0  0  0  0  0  0  0  0  0  0
    0.9781  -13.7324   16.9746 H   0  0  0  0  0  0  0  0  0  0  0  0
   -1.0055  -11.0073   18.0162 H   0  0  0  0  0  0  0  0  0  0  0  0
   -1.7205  -12.1895   17.5152 H   0  0  0  0  0  0  0  0  0  0  0  0
   -1.2273  -11.9998   19.2379 H   0  0  0  0  0  0  0  0  0  0  0  0
    3.5470  -12.4545   18.0553 H   0  0  0  0  0  0  0  0  0  0  0  0
    4.5026   -6.0808   18.7700 H   0  0  0  0  0  0  0  0  0  0  0  0
    6.9015   -5.7172   17.8406 H   0  0  0  0  0  0  0  0  0  0  0  0
    6.4713   -7.4061   19.3462 H   0  0  0  0  0  0  0  0  0  0  0  0
  1  2  1  0
  2  3  1  0
  3  4  1  0
  4  5  1  0
  5  6  1  0
  6  7  2  0
  7  8  1  0
  8  9  1  0
  9 10  1  0
 10 11  1  0
 11 12  1  0
 12 13  1  0
  8 14  1  0
  2 15  1  0
 15 16  1  0
 15 17  1  0
 17 18  1  0
 18 19  2  0
 18 20  1  0
 20 21  1  0
 21 22  2  0
 22 23  1  0
 23 24  1  0
 14  5  2  0
 24 20  2  0
 13  9  1  0
  1 25  1  0
  1 26  1  0
  1 27  1  0
  2 28  1  0
  3 29  1  0
  4 30  1  0
  4 31  1  0
  6 32  1  0
  7 33  1  0
  9 34  1  0
 10 35  1  0
 10 36  1  0
 11 37  1  0
 11 38  1  0
 12 39  1  0
 12 40  1  0
 13 41  1  0
 13 42  1  0
 15 43  1  0
 16 44  1  0
 16 45  1  0
 16 46  1  0
 17 47  1  0
 21 48  1  0
 23 49  1  0
 24 50  1  0
M  END
>  <Energy>  (862) 
1346.0818618782248

>  <compound_id>  (862) 
28376

>  <target_id>  (862) 
1

>  <reference_id>  (862) 
81

>  <inspiration_ids>  (862) 
[96, 81]

>  <energy_score>  (862) 
1263.4546642989112

>  <distance_score>  (862) 
11.155282034350618

>  <path>  (862) 
/opt/xchem-fragalysis-2/maxwin/BulkDock/SCRATCH/511023/C28376-P81/C28376-P81.minimised.mol

>  <scratch_subdir>  (862) 
/opt/xchem-fragalysis-2/maxwin/BulkDock/SCRATCH/511023/C28376-P81

>  <fragmenstein_runtime>  (862) 
29.744070529937744

>  <fragmenstein_outcome>  (862) 
too moved

>  <fragmenstein_mode>  (862) 
expansion

>  <fragmenstein_error>  (862) 


$$$$
C18707-P96
     RDKit          3D

 50 52  0  0  0  0  0  0  0  0999 V2000
   -2.8445  -18.8508   24.3355 C   0  0  0  0  0  0  0  0  0  0  0  0
   -2.3607  -17.0638   24.9781 C   0  0  0  0  0  0  0  0  0  0  0  0
   -2.9835  -17.9679   26.5419 N   0  0  0  0  0  0  0  0  0  0  0  0
   -4.5749  -18.7915   26.3071 C   0  0  0  0  0  0  0  0  0  0  0  0
   -5.2489  -20.1483   26.7747 C   0  0  0  0  0  0  0  0  0  0  0  0
   -5.0682  -21.3155   26.0509 C   0  0  0  0  0  0  0  0  0  0  0  0
   -6.3354  -21.8446   26.0783 C   0  0  0  0  0  0  0  0  0  0  0  0
   -7.0234  -21.4505   27.3014 N   0  0  0  0  0  0  0  0  0  0  0  0
   -8.4914  -22.1150   28.0599 C   0  0  0  0  0  0  0  0  0  0  0  0
   -8.5736  -23.3596   29.1257 C   0  0  0  0  0  0  0  0  0  0  0  0
   -9.8981  -23.2640   29.8846 C   0  0  0  0  0  0  0  0  0  0  0  0
  -10.8068  -22.4559   28.9948 C   0  0  0  0  0  0  0  0  0  0  0  0
   -9.9217  -21.3815   28.3599 C   0  0  0  0  0  0  0  0  0  0  0  0
   -6.5171  -20.1949   27.3440 N   0  0  0  0  0  0  0  0  0  0  0  0
   -2.5431  -15.1791   23.9423 C   0  0  0  0  0  0  0  0  0  0  0  0
   -2.6342  -14.9023   25.8288 C   0  0  0  0  0  0  0  0  0  0  0  0
   -1.6291  -13.2759   23.4114 N   0  0  0  0  0  0  0  0  0  0  0  0
    0.0987  -12.7718   22.4641 C   0  0  0  0  0  0  0  0  0  0  0  0
    0.8625  -13.5887   21.9167 O   0  0  0  0  0  0  0  0  0  0  0  0
    0.9425  -11.2030   22.4041 C   0  0  0  0  0  0  0  0  0  0  0  0
    2.3167  -11.5914   21.9417 C   0  0  0  0  0  0  0  0  0  0  0  0
    2.4358  -11.0117   20.6961 C   0  0  0  0  0  0  0  0  0  0  0  0
    1.7839  -10.0163   21.0627 N   0  0  0  0  0  0  0  0  0  0  0  0
    0.6368  -10.4026   21.4056 N   0  0  0  0  0  0  0  0  0  0  0  0
   -3.0739  -19.6490   25.0110 H   0  0  0  0  0  0  0  0  0  0  0  0
   -3.8400  -18.8483   23.8614 H   0  0  0  0  0  0  0  0  0  0  0  0
   -2.2206  -19.2744   23.5257 H   0  0  0  0  0  0  0  0  0  0  0  0
   -1.3630  -17.0170   25.4436 H   0  0  0  0  0  0  0  0  0  0  0  0
   -2.2959  -18.6891   26.6874 H   0  0  0  0  0  0  0  0  0  0  0  0
   -5.2943  -18.0174   26.4886 H   0  0  0  0  0  0  0  0  0  0  0  0
   -4.8152  -18.9146   25.2552 H   0  0  0  0  0  0  0  0  0  0  0  0
   -4.3225  -21.5371   25.3014 H   0  0  0  0  0  0  0  0  0  0  0  0
   -6.7413  -22.5435   25.3652 H   0  0  0  0  0  0  0  0  0  0  0  0
   -8.7619  -22.7107   27.1701 H   0  0  0  0  0  0  0  0  0  0  0  0
   -8.6280  -24.3080   28.5740 H   0  0  0  0  0  0  0  0  0  0  0  0
   -7.7652  -23.4732   29.8397 H   0  0  0  0  0  0  0  0  0  0  0  0
  -10.3137  -24.2559   30.0920 H   0  0  0  0  0  0  0  0  0  0  0  0
   -9.7637  -22.7726   30.8538 H   0  0  0  0  0  0  0  0  0  0  0  0
  -11.2261  -23.0977   28.2101 H   0  0  0  0  0  0  0  0  0  0  0  0
  -11.6436  -22.0183   29.5478 H   0  0  0  0  0  0  0  0  0  0  0  0
   -9.8674  -20.5094   29.0058 H   0  0  0  0  0  0  0  0  0  0  0  0
  -10.4936  -21.0586   27.4883 H   0  0  0  0  0  0  0  0  0  0  0  0
   -1.5989  -15.7118   24.2274 H   0  0  0  0  0  0  0  0  0  0  0  0
   -2.3709  -13.8728   26.1455 H   0  0  0  0  0  0  0  0  0  0  0  0
   -3.5169  -15.2899   26.3361 H   0  0  0  0  0  0  0  0  0  0  0  0
   -1.7870  -15.4360   26.2529 H   0  0  0  0  0  0  0  0  0  0  0  0
   -2.0360  -12.4503   23.8489 H   0  0  0  0  0  0  0  0  0  0  0  0
    2.8126  -12.5311   22.1532 H   0  0  0  0  0  0  0  0  0  0  0  0
    2.8199  -11.1433   19.6861 H   0  0  0  0  0  0  0  0  0  0  0  0
    1.8666   -9.0693   20.7228 H   0  0  0  0  0  0  0  0  0  0  0  0
  1  2  1  0
  2  3  1  0
  3  4  1  0
  4  5  1  0
  5  6  1  0
  6  7  2  0
  7  8  1  0
  8  9  1  0
  9 10  1  0
 10 11  1  0
 11 12  1  0
 12 13  1  0
  8 14  1  0
  2 15  1  0
 15 16  1  0
 15 17  1  0
 17 18  1  0
 18 19  2  0
 18 20  1  0
 20 21  1  0
 21 22  2  0
 22 23  1  0
 23 24  1  0
 14  5  2  0
 24 20  2  0
 13  9  1  0
  1 25  1  0
  1 26  1  0
  1 27  1  0
  2 28  1  0
  3 29  1  0
  4 30  1  0
  4 31  1  0
  6 32  1  0
  7 33  1  0
  9 34  1  0
 10 35  1  0
 10 36  1  0
 11 37  1  0
 11 38  1  0
 12 39  1  0
 12 40  1  0
 13 41  1  0
 13 42  1  0
 15 43  1  0
 16 44  1  0
 16 45  1  0
 16 46  1  0
 17 47  1  0
 21 48  1  0
 22 49  1  0
 23 50  1  0
M  END
>  <Energy>  (863) 
1071.9136280964906

>  <compound_id>  (863) 
18707

>  <target_id>  (863) 
1

>  <reference_id>  (863) 
96

>  <inspiration_ids>  (863) 
[96, 81]

>  <energy_score>  (863) 
966.2858870389622

>  <distance_score>  (863) 
11.334396149096385

>  <path>  (863) 
/opt/xchem-fragalysis-2/maxwin/BulkDock/SCRATCH/511023/C18707-P96/C18707-P96.minimised.mol

>  <scratch_subdir>  (863) 
/opt/xchem-fragalysis-2/maxwin/BulkDock/SCRATCH/511023/C18707-P96

>  <fragmenstein_runtime>  (863) 
20.546546459197998

>  <fragmenstein_outcome>  (863) 
too moved

>  <fragmenstein_mode>  (863) 
expansion

>  <fragmenstein_error>  (863) 


$$$$
C18707-P81
     RDKit          3D

 50 52  0  0  0  0  0  0  0  0999 V2000
    1.8969  -23.0579   19.1310 C   0  0  0  0  0  0  0  0  0  0  0  0
    2.9398  -21.9002   18.9495 C   0  0  0  0  0  0  0  0  0  0  0  0
    2.8090  -20.6385   19.9680 N   0  0  0  0  0  0  0  0  0  0  0  0
    1.7066  -20.2042   21.5041 C   0  0  0  0  0  0  0  0  0  0  0  0
    0.3371  -21.5519   22.3000 C   0  0  0  0  0  0  0  0  0  0  0  0
    0.2475  -23.0484   22.2866 C   0  0  0  0  0  0  0  0  0  0  0  0
   -0.9658  -23.4290   22.7989 C   0  0  0  0  0  0  0  0  0  0  0  0
   -1.6548  -22.2767   22.9525 N   0  0  0  0  0  0  0  0  0  0  0  0
   -3.1012  -22.1711   22.9661 C   0  0  0  0  0  0  0  0  0  0  0  0
   -3.6777  -22.3473   21.5487 C   0  0  0  0  0  0  0  0  0  0  0  0
   -5.0852  -22.8530   21.7842 C   0  0  0  0  0  0  0  0  0  0  0  0
   -4.8795  -23.8481   22.9099 C   0  0  0  0  0  0  0  0  0  0  0  0
   -3.8537  -23.1931   23.8361 C   0  0  0  0  0  0  0  0  0  0  0  0
   -0.9235  -21.1627   22.7336 N   0  0  0  0  0  0  0  0  0  0  0  0
    3.0132  -21.7938   17.2013 C   0  0  0  0  0  0  0  0  0  0  0  0
    3.4215  -23.1870   16.6515 C   0  0  0  0  0  0  0  0  0  0  0  0
    3.8195  -20.8650   16.3588 N   0  0  0  0  0  0  0  0  0  0  0  0
    3.5118  -20.2169   15.0862 C   0  0  0  0  0  0  0  0  0  0  0  0
    2.5032  -20.2074   14.4407 O   0  0  0  0  0  0  0  0  0  0  0  0
    4.6627  -19.3257   14.5247 C   0  0  0  0  0  0  0  0  0  0  0  0
    4.5275  -18.3116   13.5088 C   0  0  0  0  0  0  0  0  0  0  0  0
    5.7368  -17.6642   13.3983 C   0  0  0  0  0  0  0  0  0  0  0  0
    6.5623  -18.3228   14.2477 N   0  0  0  0  0  0  0  0  0  0  0  0
    5.9502  -19.2977   14.9717 N   0  0  0  0  0  0  0  0  0  0  0  0
    1.2835  -23.2170   18.2376 H   0  0  0  0  0  0  0  0  0  0  0  0
    2.4097  -23.9987   19.3589 H   0  0  0  0  0  0  0  0  0  0  0  0
    1.1471  -22.8945   19.8918 H   0  0  0  0  0  0  0  0  0  0  0  0
    3.9275  -22.3032   19.2123 H   0  0  0  0  0  0  0  0  0  0  0  0
    3.7505  -20.3289   20.2429 H   0  0  0  0  0  0  0  0  0  0  0  0
    1.3143  -20.6054   20.6702 H   0  0  0  0  0  0  0  0  0  0  0  0
    1.3905  -19.1968   21.2217 H   0  0  0  0  0  0  0  0  0  0  0  0
    0.9760  -23.7648   21.9401 H   0  0  0  0  0  0  0  0  0  0  0  0
   -1.4077  -24.4054   22.9260 H   0  0  0  0  0  0  0  0  0  0  0  0
   -3.3354  -21.1785   23.3613 H   0  0  0  0  0  0  0  0  0  0  0  0
   -3.6587  -21.4278   20.9597 H   0  0  0  0  0  0  0  0  0  0  0  0
   -3.1135  -23.0964   20.9776 H   0  0  0  0  0  0  0  0  0  0  0  0
   -5.7401  -22.0343   22.1026 H   0  0  0  0  0  0  0  0  0  0  0  0
   -5.5183  -23.3168   20.8936 H   0  0  0  0  0  0  0  0  0  0  0  0
   -5.8169  -24.0788   23.4183 H   0  0  0  0  0  0  0  0  0  0  0  0
   -4.4697  -24.7815   22.5067 H   0  0  0  0  0  0  0  0  0  0  0  0
   -4.3704  -22.6652   24.6460 H   0  0  0  0  0  0  0  0  0  0  0  0
   -3.2119  -23.9394   24.3124 H   0  0  0  0  0  0  0  0  0  0  0  0
    1.9831  -21.6053   16.8769 H   0  0  0  0  0  0  0  0  0  0  0  0
    2.7663  -24.0003   16.9676 H   0  0  0  0  0  0  0  0  0  0  0  0
    3.4102  -23.1940   15.5546 H   0  0  0  0  0  0  0  0  0  0  0  0
    4.4416  -23.4323   16.9684 H   0  0  0  0  0  0  0  0  0  0  0  0
    4.7914  -20.7306   16.5682 H   0  0  0  0  0  0  0  0  0  0  0  0
    3.6185  -18.0917   12.9636 H   0  0  0  0  0  0  0  0  0  0  0  0
    6.0721  -16.8545   12.7671 H   0  0  0  0  0  0  0  0  0  0  0  0
    7.5557  -18.1722   14.3939 H   0  0  0  0  0  0  0  0  0  0  0  0
  1  2  1  0
  2  3  1  0
  3  4  1  0
  4  5  1  0
  5  6  1  0
  6  7  2  0
  7  8  1  0
  8  9  1  0
  9 10  1  0
 10 11  1  0
 11 12  1  0
 12 13  1  0
  8 14  1  0
  2 15  1  0
 15 16  1  0
 15 17  1  0
 17 18  1  0
 18 19  2  0
 18 20  1  0
 20 21  1  0
 21 22  2  0
 22 23  1  0
 23 24  1  0
 14  5  2  0
 24 20  2  0
 13  9  1  0
  1 25  1  0
  1 26  1  0
  1 27  1  0
  2 28  1  0
  3 29  1  0
  4 30  1  0
  4 31  1  0
  6 32  1  0
  7 33  1  0
  9 34  1  0
 10 35  1  0
 10 36  1  0
 11 37  1  0
 11 38  1  0
 12 39  1  0
 12 40  1  0
 13 41  1  0
 13 42  1  0
 15 43  1  0
 16 44  1  0
 16 45  1  0
 16 46  1  0
 17 47  1  0
 21 48  1  0
 22 49  1  0
 23 50  1  0
M  END
>  <Energy>  (864) 
353.40467014018742

>  <compound_id>  (864) 
18707

>  <target_id>  (864) 
1

>  <reference_id>  (864) 
81

>  <inspiration_ids>  (864) 
[96, 81]

>  <energy_score>  (864) 
247.77692908266386

>  <distance_score>  (864) 
15.27662379899189

>  <path>  (864) 
/opt/xchem-fragalysis-2/maxwin/BulkDock/SCRATCH/511023/C18707-P81/C18707-P81.minimised.mol

>  <scratch_subdir>  (864) 
/opt/xchem-fragalysis-2/maxwin/BulkDock/SCRATCH/511023/C18707-P81

>  <fragmenstein_runtime>  (864) 
51.56550192832947

>  <fragmenstein_outcome>  (864) 
too moved

>  <fragmenstein_mode>  (864) 
expansion

>  <fragmenstein_error>  (864) 


$$$$
C28377-P96
     RDKit          3D

 46 48  0  0  0  0  0  0  0  0999 V2000
    1.9960  -11.1167   22.2761 C   0  0  0  0  0  0  0  0  0  0  0  0
    2.8629  -11.8135   23.4717 N   0  0  0  0  0  0  0  0  0  0  0  0
    0.8386  -11.7256   23.9971 C   0  0  0  0  0  0  0  0  0  0  0  0
   -0.9583  -12.6125   23.2076 C   0  0  0  0  0  0  0  0  0  0  0  0
   -2.4709  -13.0300   24.2617 N   0  0  0  0  0  0  0  0  0  0  0  0
   -3.6353  -13.8471   23.9808 C   0  0  0  0  0  0  0  0  0  0  0  0
   -3.9731  -14.3983   22.9819 O   0  0  0  0  0  0  0  0  0  0  0  0
   -4.4427  -14.0723   25.1900 C   0  0  0  0  0  0  0  0  0  0  0  0
   -5.5936  -13.3431   25.4710 C   0  0  0  0  0  0  0  0  0  0  0  0
   -6.1135  -13.8513   26.6594 C   0  0  0  0  0  0  0  0  0  0  0  0
   -5.3741  -14.8472   27.1183 N   0  0  0  0  0  0  0  0  0  0  0  0
   -4.4141  -15.0661   26.1772 N   0  0  0  0  0  0  0  0  0  0  0  0
   -3.6108  -16.2431   26.4722 C   0  0  0  0  0  0  0  0  0  0  0  0
   -4.0444  -17.6009   25.8797 C   0  0  0  0  0  0  0  0  0  0  0  0
   -2.7981  -18.4948   25.8597 C   0  0  0  0  0  0  0  0  0  0  0  0
   -1.7261  -17.6988   26.5893 C   0  0  0  0  0  0  0  0  0  0  0  0
   -2.1092  -16.2590   26.2791 C   0  0  0  0  0  0  0  0  0  0  0  0
    4.4117  -10.8917   24.2489 C   0  0  0  0  0  0  0  0  0  0  0  0
    4.3111  -10.1492   25.2456 O   0  0  0  0  0  0  0  0  0  0  0  0
    5.9267  -10.7748   23.6729 C   0  0  0  0  0  0  0  0  0  0  0  0
    6.2123   -9.7141   22.6703 C   0  0  0  0  0  0  0  0  0  0  0  0
    7.4931   -9.4190   22.4490 N   0  0  0  0  0  0  0  0  0  0  0  0
    8.1145  -10.2482   23.2780 N   0  0  0  0  0  0  0  0  0  0  0  0
    7.2527  -10.9188   24.1147 C   0  0  0  0  0  0  0  0  0  0  0  0
    2.5673  -10.7758   21.4300 H   0  0  0  0  0  0  0  0  0  0  0  0
    1.7570  -12.0459   21.7947 H   0  0  0  0  0  0  0  0  0  0  0  0
    1.1722  -10.4365   22.3537 H   0  0  0  0  0  0  0  0  0  0  0  0
    0.9675  -12.0503   25.0268 H   0  0  0  0  0  0  0  0  0  0  0  0
    0.5470  -10.6865   24.2207 H   0  0  0  0  0  0  0  0  0  0  0  0
   -1.6825  -11.8436   23.5757 H   0  0  0  0  0  0  0  0  0  0  0  0
   -1.0814  -12.7800   22.1430 H   0  0  0  0  0  0  0  0  0  0  0  0
   -2.4639  -12.7930   25.2449 H   0  0  0  0  0  0  0  0  0  0  0  0
   -5.9894  -12.5320   24.8735 H   0  0  0  0  0  0  0  0  0  0  0  0
   -6.9892  -13.5388   27.2138 H   0  0  0  0  0  0  0  0  0  0  0  0
   -3.7132  -16.3448   27.5635 H   0  0  0  0  0  0  0  0  0  0  0  0
   -4.5371  -17.5192   24.9147 H   0  0  0  0  0  0  0  0  0  0  0  0
   -4.7867  -18.1131   26.4714 H   0  0  0  0  0  0  0  0  0  0  0  0
   -2.9783  -19.4610   26.3421 H   0  0  0  0  0  0  0  0  0  0  0  0
   -2.4870  -18.6978   24.8298 H   0  0  0  0  0  0  0  0  0  0  0  0
   -0.7188  -17.9469   26.2428 H   0  0  0  0  0  0  0  0  0  0  0  0
   -1.7765  -17.8874   27.6680 H   0  0  0  0  0  0  0  0  0  0  0  0
   -1.8726  -16.1011   25.2375 H   0  0  0  0  0  0  0  0  0  0  0  0
   -1.5903  -15.5437   26.9196 H   0  0  0  0  0  0  0  0  0  0  0  0
    5.5079   -9.1583   22.0775 H   0  0  0  0  0  0  0  0  0  0  0  0
    9.1289  -10.2645   23.2869 H   0  0  0  0  0  0  0  0  0  0  0  0
    7.7183  -11.4776   24.9079 H   0  0  0  0  0  0  0  0  0  0  0  0
  1  2  1  0
  2  3  1  0
  3  4  1  0
  4  5  1  0
  5  6  1  0
  6  7  2  0
  6  8  1  0
  8  9  2  0
  9 10  1  0
 10 11  2  0
 11 12  1  0
 12 13  1  0
 13 14  1  0
 14 15  1  0
 15 16  1  0
 16 17  1  0
  2 18  1  0
 18 19  2  0
 18 20  1  0
 20 21  1  0
 21 22  2  0
 22 23  1  0
 23 24  1  0
 12  8  1  0
 17 13  1  0
 24 20  2  0
  1 25  1  0
  1 26  1  0
  1 27  1  0
  3 28  1  0
  3 29  1  0
  4 30  1  0
  4 31  1  0
  5 32  1  0
  9 33  1  0
 10 34  1  0
 13 35  1  0
 14 36  1  0
 14 37  1  0
 15 38  1  0
 15 39  1  0
 16 40  1  0
 16 41  1  0
 17 42  1  0
 17 43  1  0
 21 44  1  0
 23 45  1  0
 24 46  1  0
M  END
>  <Energy>  (865) 
581.79130204372348

>  <compound_id>  (865) 
28377

>  <target_id>  (865) 
1

>  <reference_id>  (865) 
96

>  <inspiration_ids>  (865) 
[96, 81]

>  <energy_score>  (865) 
562.8545230170755

>  <distance_score>  (865) 
12.257667057817535

>  <path>  (865) 
/opt/xchem-fragalysis-2/maxwin/BulkDock/SCRATCH/511023/C28377-P96/C28377-P96.minimised.mol

>  <scratch_subdir>  (865) 
/opt/xchem-fragalysis-2/maxwin/BulkDock/SCRATCH/511023/C28377-P96

>  <fragmenstein_runtime>  (865) 
22.06434917449951

>  <fragmenstein_outcome>  (865) 
too moved

>  <fragmenstein_mode>  (865) 
expansion

>  <fragmenstein_error>  (865) 


$$$$
C28377-P81
     RDKit          3D

 46 48  0  0  0  0  0  0  0  0999 V2000
   -1.4108   -6.6252   25.2961 C   0  0  0  0  0  0  0  0  0  0  0  0
   -1.5737   -5.5502   26.3180 N   0  0  0  0  0  0  0  0  0  0  0  0
   -2.7523   -6.4736   26.7723 C   0  0  0  0  0  0  0  0  0  0  0  0
   -2.4936   -7.6943   27.7312 C   0  0  0  0  0  0  0  0  0  0  0  0
   -3.5172   -8.7637   27.7510 N   0  0  0  0  0  0  0  0  0  0  0  0
   -3.9247   -9.6995   26.7368 C   0  0  0  0  0  0  0  0  0  0  0  0
   -3.5944   -9.7985   25.5927 O   0  0  0  0  0  0  0  0  0  0  0  0
   -4.8382  -10.7889   27.2216 C   0  0  0  0  0  0  0  0  0  0  0  0
   -5.6848  -11.5461   26.4012 C   0  0  0  0  0  0  0  0  0  0  0  0
   -6.2874  -12.5249   27.2040 C   0  0  0  0  0  0  0  0  0  0  0  0
   -5.8669  -12.4439   28.4605 N   0  0  0  0  0  0  0  0  0  0  0  0
   -4.9462  -11.4435   28.4477 N   0  0  0  0  0  0  0  0  0  0  0  0
   -4.1486  -11.2306   29.6516 C   0  0  0  0  0  0  0  0  0  0  0  0
   -3.8262  -12.5016   30.4513 C   0  0  0  0  0  0  0  0  0  0  0  0
   -4.9269  -12.6385   31.5044 C   0  0  0  0  0  0  0  0  0  0  0  0
   -5.6981  -11.3219   31.5053 C   0  0  0  0  0  0  0  0  0  0  0  0
   -4.8626  -10.3518   30.6798 C   0  0  0  0  0  0  0  0  0  0  0  0
   -0.3077   -5.2641   26.9436 C   0  0  0  0  0  0  0  0  0  0  0  0
    0.1994   -5.7333   27.9298 O   0  0  0  0  0  0  0  0  0  0  0  0
    0.5059   -4.2564   26.1782 C   0  0  0  0  0  0  0  0  0  0  0  0
    1.8780   -3.9064   26.3878 C   0  0  0  0  0  0  0  0  0  0  0  0
    2.3536   -2.9970   25.5244 N   0  0  0  0  0  0  0  0  0  0  0  0
    1.3003   -2.7629   24.7265 N   0  0  0  0  0  0  0  0  0  0  0  0
    0.1756   -3.4446   25.1054 C   0  0  0  0  0  0  0  0  0  0  0  0
   -0.5951   -6.2799   24.6491 H   0  0  0  0  0  0  0  0  0  0  0  0
   -2.2467   -6.7353   24.5922 H   0  0  0  0  0  0  0  0  0  0  0  0
   -1.0232   -7.5683   25.6847 H   0  0  0  0  0  0  0  0  0  0  0  0
   -3.3037   -5.7705   27.4178 H   0  0  0  0  0  0  0  0  0  0  0  0
   -3.5134   -6.6752   26.0000 H   0  0  0  0  0  0  0  0  0  0  0  0
   -1.5522   -8.1991   27.5009 H   0  0  0  0  0  0  0  0  0  0  0  0
   -2.4065   -7.3285   28.7606 H   0  0  0  0  0  0  0  0  0  0  0  0
   -4.0633   -8.9237   28.5843 H   0  0  0  0  0  0  0  0  0  0  0  0
   -5.8246  -11.3925   25.3376 H   0  0  0  0  0  0  0  0  0  0  0  0
   -7.0080  -13.2840   26.9269 H   0  0  0  0  0  0  0  0  0  0  0  0
   -3.2074  -10.7781   29.3270 H   0  0  0  0  0  0  0  0  0  0  0  0
   -2.8668  -12.3667   30.9671 H   0  0  0  0  0  0  0  0  0  0  0  0
   -3.7339  -13.4003   29.8329 H   0  0  0  0  0  0  0  0  0  0  0  0
   -5.5960  -13.4742   31.2719 H   0  0  0  0  0  0  0  0  0  0  0  0
   -4.4894  -12.8396   32.4885 H   0  0  0  0  0  0  0  0  0  0  0  0
   -6.6806  -11.4654   31.0409 H   0  0  0  0  0  0  0  0  0  0  0  0
   -5.8703  -10.9487   32.5197 H   0  0  0  0  0  0  0  0  0  0  0  0
   -5.4814   -9.5660   30.2355 H   0  0  0  0  0  0  0  0  0  0  0  0
   -4.1204   -9.8707   31.3287 H   0  0  0  0  0  0  0  0  0  0  0  0
    2.5394   -4.2967   27.1504 H   0  0  0  0  0  0  0  0  0  0  0  0
    1.4076   -2.1046   23.9619 H   0  0  0  0  0  0  0  0  0  0  0  0
   -0.7603   -3.2891   24.5980 H   0  0  0  0  0  0  0  0  0  0  0  0
  1  2  1  0
  2  3  1  0
  3  4  1  0
  4  5  1  0
  5  6  1  0
  6  7  2  0
  6  8  1  0
  8  9  2  0
  9 10  1  0
 10 11  2  0
 11 12  1  0
 12 13  1  0
 13 14  1  0
 14 15  1  0
 15 16  1  0
 16 17  1  0
  2 18  1  0
 18 19  2  0
 18 20  1  0
 20 21  1  0
 21 22  2  0
 22 23  1  0
 23 24  1  0
 12  8  1  0
 17 13  1  0
 24 20  2  0
  1 25  1  0
  1 26  1  0
  1 27  1  0
  3 28  1  0
  3 29  1  0
  4 30  1  0
  4 31  1  0
  5 32  1  0
  9 33  1  0
 10 34  1  0
 13 35  1  0
 14 36  1  0
 14 37  1  0
 15 38  1  0
 15 39  1  0
 16 40  1  0
 16 41  1  0
 17 42  1  0
 17 43  1  0
 21 44  1  0
 23 45  1  0
 24 46  1  0
M  END
>  <Energy>  (866) 
75.619992286291378

>  <compound_id>  (866) 
28377

>  <target_id>  (866) 
1

>  <reference_id>  (866) 
81

>  <inspiration_ids>  (866) 
[96, 81]

>  <energy_score>  (866) 
56.68321325965371

>  <distance_score>  (866) 
14.40619423871904

>  <path>  (866) 
/opt/xchem-fragalysis-2/maxwin/BulkDock/SCRATCH/511023/C28377-P81/C28377-P81.minimised.mol

>  <scratch_subdir>  (866) 
/opt/xchem-fragalysis-2/maxwin/BulkDock/SCRATCH/511023/C28377-P81

>  <fragmenstein_runtime>  (866) 
54.92138195037842

>  <fragmenstein_outcome>  (866) 
too moved

>  <fragmenstein_mode>  (866) 
expansion

>  <fragmenstein_error>  (866) 


$$$$
C18708-P96
     RDKit          3D

 46 48  0  0  0  0  0  0  0  0999 V2000
   -0.9092  -15.2181   20.1306 C   0  0  0  0  0  0  0  0  0  0  0  0
   -0.2033  -15.1949   19.0378 N   0  0  0  0  0  0  0  0  0  0  0  0
   -0.2694  -16.9084   19.7685 C   0  0  0  0  0  0  0  0  0  0  0  0
   -0.8971  -17.6679   21.5021 C   0  0  0  0  0  0  0  0  0  0  0  0
   -1.6688  -19.1908   22.2015 N   0  0  0  0  0  0  0  0  0  0  0  0
   -2.5435  -20.2678   21.5460 C   0  0  0  0  0  0  0  0  0  0  0  0
   -2.9197  -20.3819   20.4032 O   0  0  0  0  0  0  0  0  0  0  0  0
   -3.0097  -21.3233   22.4304 C   0  0  0  0  0  0  0  0  0  0  0  0
   -2.3036  -22.1522   23.2753 C   0  0  0  0  0  0  0  0  0  0  0  0
   -3.2379  -23.0868   23.7466 C   0  0  0  0  0  0  0  0  0  0  0  0
   -4.4596  -22.8869   23.2611 N   0  0  0  0  0  0  0  0  0  0  0  0
   -4.2838  -21.8916   22.3630 N   0  0  0  0  0  0  0  0  0  0  0  0
   -5.2815  -21.6749   21.3272 C   0  0  0  0  0  0  0  0  0  0  0  0
   -6.7511  -21.7993   21.7239 C   0  0  0  0  0  0  0  0  0  0  0  0
   -7.4546  -21.8626   20.3745 C   0  0  0  0  0  0  0  0  0  0  0  0
   -6.5193  -22.6590   19.4709 C   0  0  0  0  0  0  0  0  0  0  0  0
   -5.1608  -22.6751   20.1705 C   0  0  0  0  0  0  0  0  0  0  0  0
    1.2003  -14.1365   18.5897 C   0  0  0  0  0  0  0  0  0  0  0  0
    1.7387  -13.3526   19.2989 O   0  0  0  0  0  0  0  0  0  0  0  0
    1.8780  -14.0045   16.8719 C   0  0  0  0  0  0  0  0  0  0  0  0
    3.2447  -13.7142   16.2939 C   0  0  0  0  0  0  0  0  0  0  0  0
    3.1214  -13.0387   15.1069 C   0  0  0  0  0  0  0  0  0  0  0  0
    1.7935  -12.9065   14.9579 N   0  0  0  0  0  0  0  0  0  0  0  0
    1.0571  -13.4689   15.9219 N   0  0  0  0  0  0  0  0  0  0  0  0
   -1.7836  -15.3248   19.4256 H   0  0  0  0  0  0  0  0  0  0  0  0
   -0.1981  -14.4990   20.3961 H   0  0  0  0  0  0  0  0  0  0  0  0
   -1.3277  -14.2752   20.6216 H   0  0  0  0  0  0  0  0  0  0  0  0
    0.6325  -17.3598   20.0627 H   0  0  0  0  0  0  0  0  0  0  0  0
   -1.0203  -17.3182   19.0823 H   0  0  0  0  0  0  0  0  0  0  0  0
    0.0805  -17.9801   21.5691 H   0  0  0  0  0  0  0  0  0  0  0  0
   -0.3355  -17.6432   22.4230 H   0  0  0  0  0  0  0  0  0  0  0  0
   -1.4814  -19.4503   23.1632 H   0  0  0  0  0  0  0  0  0  0  0  0
   -1.2455  -22.1046   23.4898 H   0  0  0  0  0  0  0  0  0  0  0  0
   -3.0569  -23.9123   24.4132 H   0  0  0  0  0  0  0  0  0  0  0  0
   -5.1551  -20.6568   20.9473 H   0  0  0  0  0  0  0  0  0  0  0  0
   -6.9466  -22.7073   22.3009 H   0  0  0  0  0  0  0  0  0  0  0  0
   -7.0958  -20.9408   22.3021 H   0  0  0  0  0  0  0  0  0  0  0  0
   -7.5765  -20.8488   19.9734 H   0  0  0  0  0  0  0  0  0  0  0  0
   -8.4494  -22.3091   20.4380 H   0  0  0  0  0  0  0  0  0  0  0  0
   -6.4527  -22.1957   18.4807 H   0  0  0  0  0  0  0  0  0  0  0  0
   -6.8856  -23.6813   19.3286 H   0  0  0  0  0  0  0  0  0  0  0  0
   -4.9528  -23.6868   20.5411 H   0  0  0  0  0  0  0  0  0  0  0  0
   -4.3512  -22.4155   19.4811 H   0  0  0  0  0  0  0  0  0  0  0  0
    4.2135  -13.9359   16.7200 H   0  0  0  0  0  0  0  0  0  0  0  0
    3.8418  -12.6406   14.4089 H   0  0  0  0  0  0  0  0  0  0  0  0
    1.2968  -12.4436   14.2055 H   0  0  0  0  0  0  0  0  0  0  0  0
  1  2  1  0
  2  3  1  0
  3  4  1  0
  4  5  1  0
  5  6  1  0
  6  7  2  0
  6  8  1  0
  8  9  2  0
  9 10  1  0
 10 11  2  0
 11 12  1  0
 12 13  1  0
 13 14  1  0
 14 15  1  0
 15 16  1  0
 16 17  1  0
  2 18  1  0
 18 19  2  0
 18 20  1  0
 20 21  1  0
 21 22  2  0
 22 23  1  0
 23 24  1  0
 12  8  1  0
 17 13  1  0
 24 20  2  0
  1 25  1  0
  1 26  1  0
  1 27  1  0
  3 28  1  0
  3 29  1  0
  4 30  1  0
  4 31  1  0
  5 32  1  0
  9 33  1  0
 10 34  1  0
 13 35  1  0
 14 36  1  0
 14 37  1  0
 15 38  1  0
 15 39  1  0
 16 40  1  0
 16 41  1  0
 17 42  1  0
 17 43  1  0
 21 44  1  0
 22 45  1  0
 23 46  1  0
M  END
>  <Energy>  (867) 
582.81511479225696

>  <compound_id>  (867) 
18708

>  <target_id>  (867) 
1

>  <reference_id>  (867) 
96

>  <inspiration_ids>  (867) 
[96, 81]

>  <energy_score>  (867) 
496.75734296243365

>  <distance_score>  (867) 
12.762112222913922

>  <path>  (867) 
/opt/xchem-fragalysis-2/maxwin/BulkDock/SCRATCH/511023/C18708-P96/C18708-P96.minimised.mol

>  <scratch_subdir>  (867) 
/opt/xchem-fragalysis-2/maxwin/BulkDock/SCRATCH/511023/C18708-P96

>  <fragmenstein_runtime>  (867) 
32.13072466850281

>  <fragmenstein_outcome>  (867) 
too moved

>  <fragmenstein_mode>  (867) 
expansion

>  <fragmenstein_error>  (867) 


$$$$
C18708-P81
     RDKit          3D

 46 48  0  0  0  0  0  0  0  0999 V2000
   -4.0469  -17.8427   28.8862 C   0  0  0  0  0  0  0  0  0  0  0  0
   -3.4714  -16.8315   28.1136 N   0  0  0  0  0  0  0  0  0  0  0  0
   -5.4548  -16.4529   28.5267 C   0  0  0  0  0  0  0  0  0  0  0  0
   -7.4987  -16.9197   28.0445 C   0  0  0  0  0  0  0  0  0  0  0  0
   -8.7258  -18.4940   28.3839 N   0  0  0  0  0  0  0  0  0  0  0  0
  -10.6743  -18.6478   28.8318 C   0  0  0  0  0  0  0  0  0  0  0  0
  -11.5553  -17.7972   28.9088 O   0  0  0  0  0  0  0  0  0  0  0  0
  -10.8054  -20.6336   29.2792 C   0  0  0  0  0  0  0  0  0  0  0  0
  -10.8402  -21.2726   30.5885 C   0  0  0  0  0  0  0  0  0  0  0  0
  -11.8945  -22.1943   30.6196 C   0  0  0  0  0  0  0  0  0  0  0  0
  -12.4756  -22.2604   29.4308 N   0  0  0  0  0  0  0  0  0  0  0  0
  -11.4815  -21.8979   28.5551 N   0  0  0  0  0  0  0  0  0  0  0  0
  -10.8019  -23.1855   28.0797 C   0  0  0  0  0  0  0  0  0  0  0  0
  -11.1143  -23.8442   26.6986 C   0  0  0  0  0  0  0  0  0  0  0  0
  -11.4653  -25.3246   26.8919 C   0  0  0  0  0  0  0  0  0  0  0  0
  -10.6890  -25.6780   28.1376 C   0  0  0  0  0  0  0  0  0  0  0  0
  -10.9719  -24.4686   29.0109 C   0  0  0  0  0  0  0  0  0  0  0  0
   -1.8869  -15.7525   28.3857 C   0  0  0  0  0  0  0  0  0  0  0  0
   -1.4147  -15.9645   29.4555 O   0  0  0  0  0  0  0  0  0  0  0  0
   -0.6767  -14.5671   27.3761 C   0  0  0  0  0  0  0  0  0  0  0  0
    0.2100  -12.9362   26.7436 C   0  0  0  0  0  0  0  0  0  0  0  0
    1.2027  -12.4926   26.0576 C   0  0  0  0  0  0  0  0  0  0  0  0
    1.1244  -13.6563   25.6707 N   0  0  0  0  0  0  0  0  0  0  0  0
    1.0488  -14.5878   26.6924 N   0  0  0  0  0  0  0  0  0  0  0  0
   -3.1975  -18.5454   28.9606 H   0  0  0  0  0  0  0  0  0  0  0  0
   -4.1679  -17.7056   29.9674 H   0  0  0  0  0  0  0  0  0  0  0  0
   -4.6630  -18.3796   28.2024 H   0  0  0  0  0  0  0  0  0  0  0  0
   -5.5156  -15.4111   28.8630 H   0  0  0  0  0  0  0  0  0  0  0  0
   -5.5507  -16.7533   29.5836 H   0  0  0  0  0  0  0  0  0  0  0  0
   -7.6610  -16.6836   27.0052 H   0  0  0  0  0  0  0  0  0  0  0  0
   -7.9511  -15.9845   28.2797 H   0  0  0  0  0  0  0  0  0  0  0  0
   -8.2855  -19.3738   28.3248 H   0  0  0  0  0  0  0  0  0  0  0  0
  -10.4152  -20.8790   31.4960 H   0  0  0  0  0  0  0  0  0  0  0  0
  -12.3358  -22.7098   31.4649 H   0  0  0  0  0  0  0  0  0  0  0  0
   -9.7522  -22.9155   28.0306 H   0  0  0  0  0  0  0  0  0  0  0  0
  -11.7625  -23.2778   26.0322 H   0  0  0  0  0  0  0  0  0  0  0  0
  -10.1699  -23.9629   26.1720 H   0  0  0  0  0  0  0  0  0  0  0  0
  -12.5308  -25.4990   27.0549 H   0  0  0  0  0  0  0  0  0  0  0  0
  -11.1614  -25.9335   26.0338 H   0  0  0  0  0  0  0  0  0  0  0  0
   -9.6172  -25.7643   27.9279 H   0  0  0  0  0  0  0  0  0  0  0  0
  -11.0328  -26.6117   28.5917 H   0  0  0  0  0  0  0  0  0  0  0  0
  -12.0043  -24.5778   29.3644 H   0  0  0  0  0  0  0  0  0  0  0  0
  -10.3309  -24.4867   29.8939 H   0  0  0  0  0  0  0  0  0  0  0  0
    0.3267  -11.9653   27.3282 H   0  0  0  0  0  0  0  0  0  0  0  0
    1.3544  -11.5830   25.5840 H   0  0  0  0  0  0  0  0  0  0  0  0
    0.6799  -13.7936   24.7550 H   0  0  0  0  0  0  0  0  0  0  0  0
  1  2  1  0
  2  3  1  0
  3  4  1  0
  4  5  1  0
  5  6  1  0
  6  7  2  0
  6  8  1  0
  8  9  2  0
  9 10  1  0
 10 11  2  0
 11 12  1  0
 12 13  1  0
 13 14  1  0
 14 15  1  0
 15 16  1  0
 16 17  1  0
  2 18  1  0
 18 19  2  0
 18 20  1  0
 20 21  1  0
 21 22  2  0
 22 23  1  0
 23 24  1  0
 12  8  1  0
 17 13  1  0
 24 20  2  0
  1 25  1  0
  1 26  1  0
  1 27  1  0
  3 28  1  0
  3 29  1  0
  4 30  1  0
  4 31  1  0
  5 32  1  0
  9 33  1  0
 10 34  1  0
 13 35  1  0
 14 36  1  0
 14 37  1  0
 15 38  1  0
 15 39  1  0
 16 40  1  0
 16 41  1  0
 17 42  1  0
 17 43  1  0
 21 44  1  0
 22 45  1  0
 23 46  1  0
M  END
>  <Energy>  (868) 
1369.0684239547827

>  <compound_id>  (868) 
18708

>  <target_id>  (868) 
1

>  <reference_id>  (868) 
81

>  <inspiration_ids>  (868) 
[96, 81]

>  <energy_score>  (868) 
1283.0106521249943

>  <distance_score>  (868) 
14.372730385894146

>  <path>  (868) 
/opt/xchem-fragalysis-2/maxwin/BulkDock/SCRATCH/511023/C18708-P81/C18708-P81.minimised.mol

>  <scratch_subdir>  (868) 
/opt/xchem-fragalysis-2/maxwin/BulkDock/SCRATCH/511023/C18708-P81

>  <fragmenstein_runtime>  (868) 
34.10796809196472

>  <fragmenstein_outcome>  (868) 
too moved

>  <fragmenstein_mode>  (868) 
expansion

>  <fragmenstein_error>  (868) 


$$$$
C8130-P35
     RDKit          3D

 45 46  0  0  0  0  0  0  0  0999 V2000
   -9.4298  -13.3728   17.0841 C   0  0  0  0  0  0  0  0  0  0  0  0
   -9.3973  -14.7756   16.5322 C   0  0  0  0  0  0  0  0  0  0  0  0
  -10.1482  -15.7909   17.4822 C   0  0  0  0  0  0  0  0  0  0  0  0
   -9.8654  -15.8723   18.9283 N   0  0  0  0  0  0  0  0  0  0  0  0
   -9.8348  -17.0189   19.8337 C   0  0  0  0  0  0  0  0  0  0  0  0
   -9.9533  -18.1923   19.6128 O   0  0  0  0  0  0  0  0  0  0  0  0
   -9.7049  -16.5769   21.3365 C   0  0  0  0  0  0  0  0  0  0  0  0
   -9.8237  -17.7761   22.3501 C   0  0  0  0  0  0  0  0  0  0  0  0
   -9.8849  -17.4235   23.8153 C   0  0  0  0  0  0  0  0  0  0  0  0
   -9.2846  -16.4384   24.5697 C   0  0  0  0  0  0  0  0  0  0  0  0
   -9.7664  -16.6193   25.8781 C   0  0  0  0  0  0  0  0  0  0  0  0
  -10.6104  -17.6468   25.9698 N   0  0  0  0  0  0  0  0  0  0  0  0
  -10.6041  -18.1729   24.7221 N   0  0  0  0  0  0  0  0  0  0  0  0
  -10.0633  -14.8391   15.1210 C   0  0  0  0  0  0  0  0  0  0  0  0
   -9.6757  -13.8290   14.1402 N   0  0  0  0  0  0  0  0  0  0  0  0
  -10.3829  -12.6809   13.6390 C   0  0  0  0  0  0  0  0  0  0  0  0
  -11.4373  -12.2168   13.9562 O   0  0  0  0  0  0  0  0  0  0  0  0
   -9.6723  -12.0070   12.5282 C   0  0  0  0  0  0  0  0  0  0  0  0
   -8.3370  -11.9556   12.1528 C   0  0  0  0  0  0  0  0  0  0  0  0
   -8.1243  -11.1666   11.0491 N   0  0  0  0  0  0  0  0  0  0  0  0
   -9.3076  -10.7064   10.7300 C   0  0  0  0  0  0  0  0  0  0  0  0
  -10.2686  -11.1814   11.5775 N   0  0  0  0  0  0  0  0  0  0  0  0
  -11.6823  -10.9241   11.4382 C   0  0  0  0  0  0  0  0  0  0  0  0
   -8.8621  -12.7357   16.4233 H   0  0  0  0  0  0  0  0  0  0  0  0
   -8.9679  -13.3221   18.0744 H   0  0  0  0  0  0  0  0  0  0  0  0
  -10.4576  -13.0059   17.1684 H   0  0  0  0  0  0  0  0  0  0  0  0
   -8.3497  -15.0885   16.4466 H   0  0  0  0  0  0  0  0  0  0  0  0
  -10.0178  -16.8043   17.0838 H   0  0  0  0  0  0  0  0  0  0  0  0
  -11.2235  -15.5786   17.4327 H   0  0  0  0  0  0  0  0  0  0  0  0
   -9.6477  -15.0295   19.4521 H   0  0  0  0  0  0  0  0  0  0  0  0
   -8.7360  -16.0811   21.4638 H   0  0  0  0  0  0  0  0  0  0  0  0
  -10.4979  -15.8486   21.5425 H   0  0  0  0  0  0  0  0  0  0  0  0
   -8.9711  -18.4489   22.1928 H   0  0  0  0  0  0  0  0  0  0  0  0
  -10.7235  -18.3511   22.0942 H   0  0  0  0  0  0  0  0  0  0  0  0
   -8.6090  -15.6710   24.2179 H   0  0  0  0  0  0  0  0  0  0  0  0
   -9.5472  -16.0277   26.7579 H   0  0  0  0  0  0  0  0  0  0  0  0
  -11.1347  -19.0236   24.5486 H   0  0  0  0  0  0  0  0  0  0  0  0
   -9.8559  -15.8139   14.6660 H   0  0  0  0  0  0  0  0  0  0  0  0
  -11.1510  -14.7535   15.2312 H   0  0  0  0  0  0  0  0  0  0  0  0
   -8.8469  -13.9757   13.5800 H   0  0  0  0  0  0  0  0  0  0  0  0
   -7.4968  -12.4455   12.6222 H   0  0  0  0  0  0  0  0  0  0  0  0
   -9.5218  -10.0426    9.9026 H   0  0  0  0  0  0  0  0  0  0  0  0
  -12.2182  -11.8766   11.4524 H   0  0  0  0  0  0  0  0  0  0  0  0
  -11.8699  -10.4274   10.4826 H   0  0  0  0  0  0  0  0  0  0  0  0
  -12.0026  -10.2810   12.2610 H   0  0  0  0  0  0  0  0  0  0  0  0
  1  2  1  0
  2  3  1  0
  3  4  1  0
  4  5  1  0
  5  6  2  0
  5  7  1  0
  7  8  1  0
  8  9  1  0
  9 10  2  0
 10 11  1  0
 11 12  2  0
 12 13  1  0
  2 14  1  0
 14 15  1  0
 15 16  1  0
 16 17  2  0
 16 18  1  0
 18 19  2  0
 19 20  1  0
 20 21  2  0
 21 22  1  0
 22 23  1  0
 13  9  1  0
 22 18  1  0
  1 24  1  0
  1 25  1  0
  1 26  1  0
  2 27  1  0
  3 28  1  0
  3 29  1  0
  4 30  1  0
  7 31  1  0
  7 32  1  0
  8 33  1  0
  8 34  1  0
 10 35  1  0
 11 36  1  0
 13 37  1  0
 14 38  1  0
 14 39  1  0
 15 40  1  0
 19 41  1  0
 21 42  1  0
 23 43  1  0
 23 44  1  0
 23 45  1  0
M  END
>  <Energy>  (869) 
-26.664238858950743

>  <compound_id>  (869) 
8130

>  <target_id>  (869) 
1

>  <reference_id>  (869) 
35

>  <inspiration_ids>  (869) 
[35, 99]

>  <energy_score>  (869) 
-19.61642508144837

>  <distance_score>  (869) 
12.863468271761507

>  <path>  (869) 
/opt/xchem-fragalysis-2/maxwin/BulkDock/SCRATCH/511023/C8130-P35/C8130-P35.minimised.mol

>  <scratch_subdir>  (869) 
/opt/xchem-fragalysis-2/maxwin/BulkDock/SCRATCH/511023/C8130-P35

>  <fragmenstein_runtime>  (869) 
33.230801820755005

>  <fragmenstein_outcome>  (869) 
too moved

>  <fragmenstein_mode>  (869) 
expansion

>  <fragmenstein_error>  (869) 


$$$$
C8130-P99
     RDKit          3D

 45 46  0  0  0  0  0  0  0  0999 V2000
   -3.1883  -11.5611   18.6259 C   0  0  0  0  0  0  0  0  0  0  0  0
   -4.2448  -11.5802   20.0950 C   0  0  0  0  0  0  0  0  0  0  0  0
   -3.7617  -10.6108   21.9036 C   0  0  0  0  0  0  0  0  0  0  0  0
   -3.8123  -11.2416   23.7745 N   0  0  0  0  0  0  0  0  0  0  0  0
   -3.0099  -10.8911   24.9357 C   0  0  0  0  0  0  0  0  0  0  0  0
   -2.0518  -10.1795   25.0374 O   0  0  0  0  0  0  0  0  0  0  0  0
   -3.6215  -11.7184   26.1691 C   0  0  0  0  0  0  0  0  0  0  0  0
   -3.3774  -13.2590   26.1713 C   0  0  0  0  0  0  0  0  0  0  0  0
   -4.3831  -14.1776   26.8395 C   0  0  0  0  0  0  0  0  0  0  0  0
   -5.5993  -14.6842   26.4117 C   0  0  0  0  0  0  0  0  0  0  0  0
   -5.9295  -15.7042   27.3276 C   0  0  0  0  0  0  0  0  0  0  0  0
   -5.0286  -15.8067   28.3052 N   0  0  0  0  0  0  0  0  0  0  0  0
   -4.1168  -14.8678   28.0026 N   0  0  0  0  0  0  0  0  0  0  0  0
   -5.7496  -12.3937   18.9618 C   0  0  0  0  0  0  0  0  0  0  0  0
   -6.8433  -11.6460   17.7253 N   0  0  0  0  0  0  0  0  0  0  0  0
   -6.5140  -10.5619   16.3573 C   0  0  0  0  0  0  0  0  0  0  0  0
   -5.4536  -10.1846   16.2670 O   0  0  0  0  0  0  0  0  0  0  0  0
   -7.5650   -9.9860   14.7832 C   0  0  0  0  0  0  0  0  0  0  0  0
   -8.7819  -10.6202   14.2427 C   0  0  0  0  0  0  0  0  0  0  0  0
   -9.2379  -10.2072   13.0325 N   0  0  0  0  0  0  0  0  0  0  0  0
   -8.1690   -9.7267   12.4874 C   0  0  0  0  0  0  0  0  0  0  0  0
   -7.1089   -9.7562   13.3533 N   0  0  0  0  0  0  0  0  0  0  0  0
   -5.8250  -10.0584   12.7494 C   0  0  0  0  0  0  0  0  0  0  0  0
   -3.8086  -11.3804   17.7659 H   0  0  0  0  0  0  0  0  0  0  0  0
   -2.6131  -12.4810   18.5245 H   0  0  0  0  0  0  0  0  0  0  0  0
   -2.5094  -10.6899   18.5884 H   0  0  0  0  0  0  0  0  0  0  0  0
   -4.0586  -10.5763   19.8325 H   0  0  0  0  0  0  0  0  0  0  0  0
   -3.3936   -9.5876   22.0064 H   0  0  0  0  0  0  0  0  0  0  0  0
   -4.7078  -10.3183   21.9484 H   0  0  0  0  0  0  0  0  0  0  0  0
   -4.5087  -11.9491   24.0470 H   0  0  0  0  0  0  0  0  0  0  0  0
   -4.6989  -11.5098   26.1946 H   0  0  0  0  0  0  0  0  0  0  0  0
   -3.2087  -11.2829   27.0872 H   0  0  0  0  0  0  0  0  0  0  0  0
   -3.2799  -13.6020   25.1338 H   0  0  0  0  0  0  0  0  0  0  0  0
   -2.3889  -13.4347   26.6167 H   0  0  0  0  0  0  0  0  0  0  0  0
   -6.1358  -14.4178   25.5114 H   0  0  0  0  0  0  0  0  0  0  0  0
   -6.7774  -16.3778   27.3138 H   0  0  0  0  0  0  0  0  0  0  0  0
   -3.3035  -14.7875   28.6037 H   0  0  0  0  0  0  0  0  0  0  0  0
   -6.6142  -12.8356   19.4412 H   0  0  0  0  0  0  0  0  0  0  0  0
   -5.2840  -12.6621   18.0577 H   0  0  0  0  0  0  0  0  0  0  0  0
   -7.7888  -11.9766   17.6434 H   0  0  0  0  0  0  0  0  0  0  0  0
   -9.2905  -11.4817   14.6510 H   0  0  0  0  0  0  0  0  0  0  0  0
   -8.0643   -9.4528   11.4445 H   0  0  0  0  0  0  0  0  0  0  0  0
   -5.9599  -10.8689   12.0254 H   0  0  0  0  0  0  0  0  0  0  0  0
   -5.1565  -10.3999   13.5144 H   0  0  0  0  0  0  0  0  0  0  0  0
   -5.4608   -9.1729   12.2329 H   0  0  0  0  0  0  0  0  0  0  0  0
  1  2  1  0
  2  3  1  0
  3  4  1  0
  4  5  1  0
  5  6  2  0
  5  7  1  0
  7  8  1  0
  8  9  1  0
  9 10  2  0
 10 11  1  0
 11 12  2  0
 12 13  1  0
  2 14  1  0
 14 15  1  0
 15 16  1  0
 16 17  2  0
 16 18  1  0
 18 19  2  0
 19 20  1  0
 20 21  2  0
 21 22  1  0
 22 23  1  0
 13  9  1  0
 22 18  1  0
  1 24  1  0
  1 25  1  0
  1 26  1  0
  2 27  1  0
  3 28  1  0
  3 29  1  0
  4 30  1  0
  7 31  1  0
  7 32  1  0
  8 33  1  0
  8 34  1  0
 10 35  1  0
 11 36  1  0
 13 37  1  0
 14 38  1  0
 14 39  1  0
 15 40  1  0
 19 41  1  0
 21 42  1  0
 23 43  1  0
 23 44  1  0
 23 45  1  0
M  END
>  <Energy>  (870) 
552.63350867770964

>  <compound_id>  (870) 
8130

>  <target_id>  (870) 
1

>  <reference_id>  (870) 
99

>  <inspiration_ids>  (870) 
[35, 99]

>  <energy_score>  (870) 
559.6813224552263

>  <distance_score>  (870) 
13.071812967559724

>  <path>  (870) 
/opt/xchem-fragalysis-2/maxwin/BulkDock/SCRATCH/511023/C8130-P99/C8130-P99.minimised.mol

>  <scratch_subdir>  (870) 
/opt/xchem-fragalysis-2/maxwin/BulkDock/SCRATCH/511023/C8130-P99

>  <fragmenstein_runtime>  (870) 
44.78720164299011

>  <fragmenstein_outcome>  (870) 
too moved

>  <fragmenstein_mode>  (870) 
expansion

>  <fragmenstein_error>  (870) 


$$$$
C8131-P35
     RDKit          3D

 42 43  0  0  0  0  0  0  0  0999 V2000
   -7.8430   -5.0304   13.1052 C   0  0  0  0  0  0  0  0  0  0  0  0
   -8.9757   -5.4340   13.8663 C   0  0  0  0  0  0  0  0  0  0  0  0
   -8.2173   -5.7422   15.2265 C   0  0  0  0  0  0  0  0  0  0  0  0
   -7.5558   -7.1153   15.4298 N   0  0  0  0  0  0  0  0  0  0  0  0
   -6.9268   -7.8754   16.8713 C   0  0  0  0  0  0  0  0  0  0  0  0
   -6.8354   -7.3679   17.9407 O   0  0  0  0  0  0  0  0  0  0  0  0
   -6.4570   -9.8040   16.8372 C   0  0  0  0  0  0  0  0  0  0  0  0
   -6.9981  -11.2921   17.9363 C   0  0  0  0  0  0  0  0  0  0  0  0
   -6.8816  -12.8420   18.6701 C   0  0  0  0  0  0  0  0  0  0  0  0
   -7.7582  -13.9250   18.5477 C   0  0  0  0  0  0  0  0  0  0  0  0
   -7.3677  -14.8813   19.5082 C   0  0  0  0  0  0  0  0  0  0  0  0
   -6.3097  -14.4804   20.2065 N   0  0  0  0  0  0  0  0  0  0  0  0
   -6.0591  -13.2360   19.7246 N   0  0  0  0  0  0  0  0  0  0  0  0
   -9.5599   -4.6800   12.6359 C   0  0  0  0  0  0  0  0  0  0  0  0
   -9.7802   -4.2973   10.8640 N   0  0  0  0  0  0  0  0  0  0  0  0
   -8.6977   -4.4932    9.4580 C   0  0  0  0  0  0  0  0  0  0  0  0
   -7.5846   -5.0286    9.4069 O   0  0  0  0  0  0  0  0  0  0  0  0
   -9.0337   -3.8618    8.1517 C   0  0  0  0  0  0  0  0  0  0  0  0
   -9.4138   -2.5407    7.9087 C   0  0  0  0  0  0  0  0  0  0  0  0
   -9.3160   -2.1871    6.5936 N   0  0  0  0  0  0  0  0  0  0  0  0
   -8.7865   -3.2372    6.0345 C   0  0  0  0  0  0  0  0  0  0  0  0
   -8.2191   -3.3193    4.4392 Cl  0  0  0  0  0  0  0  0  0  0  0  0
   -8.5916   -4.2710    6.8993 N   0  0  0  0  0  0  0  0  0  0  0  0
   -7.2046   -5.7642   12.7050 H   0  0  0  0  0  0  0  0  0  0  0  0
   -7.4337   -4.2529   13.7713 H   0  0  0  0  0  0  0  0  0  0  0  0
   -7.8800   -4.7988   12.0515 H   0  0  0  0  0  0  0  0  0  0  0  0
   -9.7489   -6.1863   14.0406 H   0  0  0  0  0  0  0  0  0  0  0  0
   -7.3433   -5.2312   15.3434 H   0  0  0  0  0  0  0  0  0  0  0  0
   -8.9335   -5.5451   15.9876 H   0  0  0  0  0  0  0  0  0  0  0  0
   -7.5973   -7.8002   14.6761 H   0  0  0  0  0  0  0  0  0  0  0  0
   -5.3716   -9.9814   16.8530 H   0  0  0  0  0  0  0  0  0  0  0  0
   -6.7275  -10.0372   15.8396 H   0  0  0  0  0  0  0  0  0  0  0  0
   -7.7093  -11.7473   17.2636 H   0  0  0  0  0  0  0  0  0  0  0  0
   -5.9306  -11.5726   17.7527 H   0  0  0  0  0  0  0  0  0  0  0  0
   -8.5957  -13.9875   17.8688 H   0  0  0  0  0  0  0  0  0  0  0  0
   -7.8073  -15.8464   19.7199 H   0  0  0  0  0  0  0  0  0  0  0  0
   -5.3312  -12.7037   20.1886 H   0  0  0  0  0  0  0  0  0  0  0  0
  -10.4051   -5.3007   12.6308 H   0  0  0  0  0  0  0  0  0  0  0  0
   -9.7567   -3.7325   13.1786 H   0  0  0  0  0  0  0  0  0  0  0  0
  -10.5382   -3.7688   10.6178 H   0  0  0  0  0  0  0  0  0  0  0  0
   -9.7062   -1.8024    8.6453 H   0  0  0  0  0  0  0  0  0  0  0  0
   -8.1086   -5.1291    6.6758 H   0  0  0  0  0  0  0  0  0  0  0  0
  1  2  1  0
  2  3  1  0
  3  4  1  0
  4  5  1  0
  5  6  2  0
  5  7  1  0
  7  8  1  0
  8  9  1  0
  9 10  2  0
 10 11  1  0
 11 12  2  0
 12 13  1  0
  2 14  1  0
 14 15  1  0
 15 16  1  0
 16 17  2  0
 16 18  1  0
 18 19  2  0
 19 20  1  0
 20 21  2  0
 21 22  1  0
 21 23  1  0
 13  9  1  0
 23 18  1  0
  1 24  1  0
  1 25  1  0
  1 26  1  0
  2 27  1  0
  3 28  1  0
  3 29  1  0
  4 30  1  0
  7 31  1  0
  7 32  1  0
  8 33  1  0
  8 34  1  0
 10 35  1  0
 11 36  1  0
 13 37  1  0
 14 38  1  0
 14 39  1  0
 15 40  1  0
 19 41  1  0
 23 42  1  0
M  END
>  <Energy>  (871) 
488.65721164258952

>  <compound_id>  (871) 
8131

>  <target_id>  (871) 
1

>  <reference_id>  (871) 
35

>  <inspiration_ids>  (871) 
[35, 99]

>  <energy_score>  (871) 
505.7405435204478

>  <distance_score>  (871) 
13.318511334927136

>  <path>  (871) 
/opt/xchem-fragalysis-2/maxwin/BulkDock/SCRATCH/511023/C8131-P35/C8131-P35.minimised.mol

>  <scratch_subdir>  (871) 
/opt/xchem-fragalysis-2/maxwin/BulkDock/SCRATCH/511023/C8131-P35

>  <fragmenstein_runtime>  (871) 
32.25308275222778

>  <fragmenstein_outcome>  (871) 
too moved

>  <fragmenstein_mode>  (871) 
expansion

>  <fragmenstein_error>  (871) 


$$$$
C8131-P99
     RDKit          3D

 42 43  0  0  0  0  0  0  0  0999 V2000
   -8.4865  -13.5192   17.4424 C   0  0  0  0  0  0  0  0  0  0  0  0
   -9.9157  -14.0227   17.5601 C   0  0  0  0  0  0  0  0  0  0  0  0
   -9.9979  -15.3371   18.4144 C   0  0  0  0  0  0  0  0  0  0  0  0
   -9.8270  -15.3745   19.8685 N   0  0  0  0  0  0  0  0  0  0  0  0
  -10.5677  -16.0924   20.8964 C   0  0  0  0  0  0  0  0  0  0  0  0
  -11.5544  -16.7701   20.8186 O   0  0  0  0  0  0  0  0  0  0  0  0
   -9.8722  -16.0257   22.2985 C   0  0  0  0  0  0  0  0  0  0  0  0
  -10.5464  -17.0152   23.3115 C   0  0  0  0  0  0  0  0  0  0  0  0
   -9.8740  -17.2265   24.6368 C   0  0  0  0  0  0  0  0  0  0  0  0
   -8.6437  -17.7435   24.9845 C   0  0  0  0  0  0  0  0  0  0  0  0
   -8.6542  -17.8175   26.3880 C   0  0  0  0  0  0  0  0  0  0  0  0
   -9.8154  -17.4060   26.9067 N   0  0  0  0  0  0  0  0  0  0  0  0
  -10.5322  -17.0310   25.8258 N   0  0  0  0  0  0  0  0  0  0  0  0
  -10.4591  -14.3912   16.1539 C   0  0  0  0  0  0  0  0  0  0  0  0
  -10.7173  -13.3020   15.2369 N   0  0  0  0  0  0  0  0  0  0  0  0
  -11.8901  -12.5188   15.0205 C   0  0  0  0  0  0  0  0  0  0  0  0
  -12.9365  -12.5074   15.5955 O   0  0  0  0  0  0  0  0  0  0  0  0
  -11.7881  -11.6733   13.8350 C   0  0  0  0  0  0  0  0  0  0  0  0
  -10.7549  -11.1329   13.0843 C   0  0  0  0  0  0  0  0  0  0  0  0
  -11.2269  -10.5043   11.9510 N   0  0  0  0  0  0  0  0  0  0  0  0
  -12.5221  -10.6248   12.0277 C   0  0  0  0  0  0  0  0  0  0  0  0
  -13.7025  -10.1585   10.9080 Cl  0  0  0  0  0  0  0  0  0  0  0  0
  -12.9179  -11.2361   13.1666 N   0  0  0  0  0  0  0  0  0  0  0  0
   -8.1081  -13.1762   18.4079 H   0  0  0  0  0  0  0  0  0  0  0  0
   -8.4626  -12.7014   16.7390 H   0  0  0  0  0  0  0  0  0  0  0  0
   -7.8159  -14.3050   17.0787 H   0  0  0  0  0  0  0  0  0  0  0  0
  -10.5529  -13.2517   18.0024 H   0  0  0  0  0  0  0  0  0  0  0  0
   -9.2678  -16.0576   18.0241 H   0  0  0  0  0  0  0  0  0  0  0  0
  -10.9821  -15.7930   18.2481 H   0  0  0  0  0  0  0  0  0  0  0  0
   -8.9898  -14.9714   20.2827 H   0  0  0  0  0  0  0  0  0  0  0  0
   -8.8160  -16.2889   22.1727 H   0  0  0  0  0  0  0  0  0  0  0  0
   -9.9379  -14.9991   22.6740 H   0  0  0  0  0  0  0  0  0  0  0  0
  -11.5792  -16.6802   23.4772 H   0  0  0  0  0  0  0  0  0  0  0  0
  -10.6252  -18.0018   22.8346 H   0  0  0  0  0  0  0  0  0  0  0  0
   -7.8544  -18.0504   24.3127 H   0  0  0  0  0  0  0  0  0  0  0  0
   -7.8733  -18.1731   27.0484 H   0  0  0  0  0  0  0  0  0  0  0  0
  -11.4809  -16.6911   25.9663 H   0  0  0  0  0  0  0  0  0  0  0  0
  -11.4187  -14.9103   16.2635 H   0  0  0  0  0  0  0  0  0  0  0  0
   -9.7720  -15.0778   15.6457 H   0  0  0  0  0  0  0  0  0  0  0  0
  -10.0485  -13.1031   14.5038 H   0  0  0  0  0  0  0  0  0  0  0  0
   -9.6902  -11.1858   13.2766 H   0  0  0  0  0  0  0  0  0  0  0  0
  -13.8682  -11.4530   13.4329 H   0  0  0  0  0  0  0  0  0  0  0  0
  1  2  1  0
  2  3  1  0
  3  4  1  0
  4  5  1  0
  5  6  2  0
  5  7  1  0
  7  8  1  0
  8  9  1  0
  9 10  2  0
 10 11  1  0
 11 12  2  0
 12 13  1  0
  2 14  1  0
 14 15  1  0
 15 16  1  0
 16 17  2  0
 16 18  1  0
 18 19  2  0
 19 20  1  0
 20 21  2  0
 21 22  1  0
 21 23  1  0
 13  9  1  0
 23 18  1  0
  1 24  1  0
  1 25  1  0
  1 26  1  0
  2 27  1  0
  3 28  1  0
  3 29  1  0
  4 30  1  0
  7 31  1  0
  7 32  1  0
  8 33  1  0
  8 34  1  0
 10 35  1  0
 11 36  1  0
 13 37  1  0
 14 38  1  0
 14 39  1  0
 15 40  1  0
 19 41  1  0
 23 42  1  0
M  END
>  <Energy>  (872) 
-36.997218782931121

>  <compound_id>  (872) 
8131

>  <target_id>  (872) 
1

>  <reference_id>  (872) 
99

>  <inspiration_ids>  (872) 
[35, 99]

>  <energy_score>  (872) 
-19.913886905070285

>  <distance_score>  (872) 
13.063109138440918

>  <path>  (872) 
/opt/xchem-fragalysis-2/maxwin/BulkDock/SCRATCH/511023/C8131-P99/C8131-P99.minimised.mol

>  <scratch_subdir>  (872) 
/opt/xchem-fragalysis-2/maxwin/BulkDock/SCRATCH/511023/C8131-P99

>  <fragmenstein_runtime>  (872) 
40.229275703430176

>  <fragmenstein_outcome>  (872) 
too moved

>  <fragmenstein_mode>  (872) 
expansion

>  <fragmenstein_error>  (872) 


$$$$
C10597-P35
     RDKit          3D

 48 49  0  0  0  0  0  0  0  0999 V2000
  -12.7062  -14.0398   27.2375 C   0  0  0  0  0  0  0  0  0  0  0  0
  -12.7360  -12.5293   27.0116 C   0  0  0  0  0  0  0  0  0  0  0  0
  -13.6672  -11.9367   28.0826 C   0  0  0  0  0  0  0  0  0  0  0  0
  -11.3589  -11.8605   27.1038 C   0  0  0  0  0  0  0  0  0  0  0  0
  -10.2392  -12.1938   26.0210 C   0  0  0  0  0  0  0  0  0  0  0  0
   -9.2070  -13.5364   27.0828 C   0  0  0  0  0  0  0  0  0  0  0  0
   -9.1886  -15.3055   26.8223 N   0  0  0  0  0  0  0  0  0  0  0  0
   -8.1165  -16.3716   27.1734 C   0  0  0  0  0  0  0  0  0  0  0  0
   -7.0089  -16.2409   27.6277 O   0  0  0  0  0  0  0  0  0  0  0  0
   -8.7539  -18.0914   26.9482 C   0  0  0  0  0  0  0  0  0  0  0  0
   -8.7715  -19.8374   27.3851 C   0  0  0  0  0  0  0  0  0  0  0  0
   -9.9366  -21.2923   28.0439 C   0  0  0  0  0  0  0  0  0  0  0  0
   -9.5487  -22.6014   28.1198 N   0  0  0  0  0  0  0  0  0  0  0  0
  -10.6174  -23.4009   28.4639 C   0  0  0  0  0  0  0  0  0  0  0  0
  -11.6452  -22.6113   28.8698 C   0  0  0  0  0  0  0  0  0  0  0  0
  -11.1857  -21.3351   28.7062 N   0  0  0  0  0  0  0  0  0  0  0  0
  -10.4768  -10.9362   24.6064 N   0  0  0  0  0  0  0  0  0  0  0  0
   -9.3151  -10.2850   23.3698 C   0  0  0  0  0  0  0  0  0  0  0  0
   -8.1703  -10.6795   23.2237 O   0  0  0  0  0  0  0  0  0  0  0  0
   -9.6184   -8.7694   22.2420 C   0  0  0  0  0  0  0  0  0  0  0  0
   -9.2532   -8.2624   20.2338 C   0  0  0  0  0  0  0  0  0  0  0  0
   -8.5763   -7.0307   20.1419 C   0  0  0  0  0  0  0  0  0  0  0  0
   -8.0516   -6.9945   21.4592 N   0  0  0  0  0  0  0  0  0  0  0  0
   -8.6741   -7.8347   22.5642 N   0  0  0  0  0  0  0  0  0  0  0  0
  -12.2276  -14.2849   28.1906 H   0  0  0  0  0  0  0  0  0  0  0  0
  -13.7231  -14.4480   27.2624 H   0  0  0  0  0  0  0  0  0  0  0  0
  -12.1807  -14.5709   26.4489 H   0  0  0  0  0  0  0  0  0  0  0  0
  -13.1694  -12.3035   26.0354 H   0  0  0  0  0  0  0  0  0  0  0  0
  -13.3214  -12.1886   29.0916 H   0  0  0  0  0  0  0  0  0  0  0  0
  -13.7201  -10.8488   28.0174 H   0  0  0  0  0  0  0  0  0  0  0  0
  -14.6852  -12.3249   27.9682 H   0  0  0  0  0  0  0  0  0  0  0  0
  -10.9698  -12.0421   28.1124 H   0  0  0  0  0  0  0  0  0  0  0  0
  -11.4715  -10.7754   27.1041 H   0  0  0  0  0  0  0  0  0  0  0  0
   -9.4648  -11.5070   26.3929 H   0  0  0  0  0  0  0  0  0  0  0  0
   -8.1616  -13.2293   27.2585 H   0  0  0  0  0  0  0  0  0  0  0  0
   -9.6717  -13.4955   28.0721 H   0  0  0  0  0  0  0  0  0  0  0  0
  -10.0427  -15.7697   26.5371 H   0  0  0  0  0  0  0  0  0  0  0  0
   -7.7857  -18.3226   26.4556 H   0  0  0  0  0  0  0  0  0  0  0  0
   -9.5840  -17.8739   26.2917 H   0  0  0  0  0  0  0  0  0  0  0  0
   -7.9930  -20.3551   26.8076 H   0  0  0  0  0  0  0  0  0  0  0  0
   -8.3034  -19.4232   28.2543 H   0  0  0  0  0  0  0  0  0  0  0  0
  -10.5495  -24.4808   28.4616 H   0  0  0  0  0  0  0  0  0  0  0  0
  -12.6316  -22.8335   29.2509 H   0  0  0  0  0  0  0  0  0  0  0  0
  -11.7573  -20.5151   28.7733 H   0  0  0  0  0  0  0  0  0  0  0  0
  -11.3177  -10.3973   24.5826 H   0  0  0  0  0  0  0  0  0  0  0  0
   -8.8102   -8.9796   19.5278 H   0  0  0  0  0  0  0  0  0  0  0  0
   -8.2627   -6.3724   19.3423 H   0  0  0  0  0  0  0  0  0  0  0  0
   -7.3157   -6.4156   21.8383 H   0  0  0  0  0  0  0  0  0  0  0  0
  1  2  1  0
  2  3  1  0
  2  4  1  0
  4  5  1  0
  5  6  1  0
  6  7  1  0
  7  8  1  0
  8  9  2  0
  8 10  1  0
 10 11  1  0
 11 12  1  0
 12 13  2  0
 13 14  1  0
 14 15  2  0
 15 16  1  0
  5 17  1  0
 17 18  1  0
 18 19  2  0
 18 20  1  0
 20 21  1  0
 21 22  2  0
 22 23  1  0
 23 24  1  0
 16 12  1  0
 24 20  2  0
  1 25  1  0
  1 26  1  0
  1 27  1  0
  2 28  1  0
  3 29  1  0
  3 30  1  0
  3 31  1  0
  4 32  1  0
  4 33  1  0
  5 34  1  0
  6 35  1  0
  6 36  1  0
  7 37  1  0
 10 38  1  0
 10 39  1  0
 11 40  1  0
 11 41  1  0
 14 42  1  0
 15 43  1  0
 16 44  1  0
 17 45  1  0
 21 46  1  0
 22 47  1  0
 23 48  1  0
M  END
>  <Energy>  (873) 
723.44165734850242

>  <compound_id>  (873) 
10597

>  <target_id>  (873) 
1

>  <reference_id>  (873) 
35

>  <inspiration_ids>  (873) 
[35, 99]

>  <energy_score>  (873) 
655.6516794523728

>  <distance_score>  (873) 
10.886204699290944

>  <path>  (873) 
/opt/xchem-fragalysis-2/maxwin/BulkDock/SCRATCH/511023/C10597-P35/C10597-P35.minimised.mol

>  <scratch_subdir>  (873) 
/opt/xchem-fragalysis-2/maxwin/BulkDock/SCRATCH/511023/C10597-P35

>  <fragmenstein_runtime>  (873) 
27.52916121482849

>  <fragmenstein_outcome>  (873) 
too moved

>  <fragmenstein_mode>  (873) 
expansion

>  <fragmenstein_error>  (873) 


$$$$
C10597-P99
     RDKit          3D

 48 49  0  0  0  0  0  0  0  0999 V2000
  -19.4350  -20.5079   18.9902 C   0  0  0  0  0  0  0  0  0  0  0  0
  -18.3917  -19.4265   19.3054 C   0  0  0  0  0  0  0  0  0  0  0  0
  -18.7541  -18.7690   20.6349 C   0  0  0  0  0  0  0  0  0  0  0  0
  -16.9845  -20.0611   19.2855 C   0  0  0  0  0  0  0  0  0  0  0  0
  -15.7567  -19.1341   19.2976 C   0  0  0  0  0  0  0  0  0  0  0  0
  -15.3581  -18.7956   20.7583 C   0  0  0  0  0  0  0  0  0  0  0  0
  -14.6804  -19.9260   21.4381 N   0  0  0  0  0  0  0  0  0  0  0  0
  -15.1311  -20.8048   22.4999 C   0  0  0  0  0  0  0  0  0  0  0  0
  -16.1948  -20.8911   23.0431 O   0  0  0  0  0  0  0  0  0  0  0  0
  -13.9571  -21.7145   22.9741 C   0  0  0  0  0  0  0  0  0  0  0  0
  -14.4063  -22.7853   23.9920 C   0  0  0  0  0  0  0  0  0  0  0  0
  -13.3054  -23.5976   24.6085 C   0  0  0  0  0  0  0  0  0  0  0  0
  -12.3946  -23.1681   25.4547 N   0  0  0  0  0  0  0  0  0  0  0  0
  -11.7811  -24.2932   25.9582 C   0  0  0  0  0  0  0  0  0  0  0  0
  -12.2598  -25.4207   25.3410 C   0  0  0  0  0  0  0  0  0  0  0  0
  -13.2209  -24.9672   24.4818 N   0  0  0  0  0  0  0  0  0  0  0  0
  -15.7577  -18.0438   18.2799 N   0  0  0  0  0  0  0  0  0  0  0  0
  -16.3973  -16.7444   18.2793 C   0  0  0  0  0  0  0  0  0  0  0  0
  -17.1524  -16.2478   19.0629 O   0  0  0  0  0  0  0  0  0  0  0  0
  -16.0005  -15.8905   17.0579 C   0  0  0  0  0  0  0  0  0  0  0  0
  -15.8767  -16.2448   15.6734 C   0  0  0  0  0  0  0  0  0  0  0  0
  -15.4966  -15.1008   14.9974 C   0  0  0  0  0  0  0  0  0  0  0  0
  -15.3897  -14.1345   15.9495 N   0  0  0  0  0  0  0  0  0  0  0  0
  -15.6805  -14.5806   17.1874 N   0  0  0  0  0  0  0  0  0  0  0  0
  -19.4274  -21.2999   19.7470 H   0  0  0  0  0  0  0  0  0  0  0  0
  -19.2396  -20.9671   18.0153 H   0  0  0  0  0  0  0  0  0  0  0  0
  -20.4428  -20.0800   18.9566 H   0  0  0  0  0  0  0  0  0  0  0  0
  -18.4629  -18.6748   18.5117 H   0  0  0  0  0  0  0  0  0  0  0  0
  -18.6002  -19.4558   21.4740 H   0  0  0  0  0  0  0  0  0  0  0  0
  -19.8055  -18.4608   20.6432 H   0  0  0  0  0  0  0  0  0  0  0  0
  -18.1639  -17.8679   20.8122 H   0  0  0  0  0  0  0  0  0  0  0  0
  -16.9156  -20.6351   18.3495 H   0  0  0  0  0  0  0  0  0  0  0  0
  -16.9088  -20.8099   20.0838 H   0  0  0  0  0  0  0  0  0  0  0  0
  -14.9333  -19.7633   18.9273 H   0  0  0  0  0  0  0  0  0  0  0  0
  -14.6703  -17.9498   20.7707 H   0  0  0  0  0  0  0  0  0  0  0  0
  -16.2144  -18.5153   21.3715 H   0  0  0  0  0  0  0  0  0  0  0  0
  -13.6931  -20.0752   21.2831 H   0  0  0  0  0  0  0  0  0  0  0  0
  -13.1982  -21.0662   23.4285 H   0  0  0  0  0  0  0  0  0  0  0  0
  -13.5123  -22.2027   22.0991 H   0  0  0  0  0  0  0  0  0  0  0  0
  -14.9662  -22.3106   24.8052 H   0  0  0  0  0  0  0  0  0  0  0  0
  -15.1209  -23.4560   23.4970 H   0  0  0  0  0  0  0  0  0  0  0  0
  -11.0330  -24.2250   26.7385 H   0  0  0  0  0  0  0  0  0  0  0  0
  -12.0345  -26.4688   25.4699 H   0  0  0  0  0  0  0  0  0  0  0  0
  -13.8211  -25.5442   23.9105 H   0  0  0  0  0  0  0  0  0  0  0  0
  -15.1121  -18.0960   17.4967 H   0  0  0  0  0  0  0  0  0  0  0  0
  -16.0603  -17.2157   15.2348 H   0  0  0  0  0  0  0  0  0  0  0  0
  -15.2869  -14.9028   13.9560 H   0  0  0  0  0  0  0  0  0  0  0  0
  -15.0681  -13.1747   15.8511 H   0  0  0  0  0  0  0  0  0  0  0  0
  1  2  1  0
  2  3  1  0
  2  4  1  0
  4  5  1  0
  5  6  1  0
  6  7  1  0
  7  8  1  0
  8  9  2  0
  8 10  1  0
 10 11  1  0
 11 12  1  0
 12 13  2  0
 13 14  1  0
 14 15  2  0
 15 16  1  0
  5 17  1  0
 17 18  1  0
 18 19  2  0
 18 20  1  0
 20 21  1  0
 21 22  2  0
 22 23  1  0
 23 24  1  0
 16 12  1  0
 24 20  2  0
  1 25  1  0
  1 26  1  0
  1 27  1  0
  2 28  1  0
  3 29  1  0
  3 30  1  0
  3 31  1  0
  4 32  1  0
  4 33  1  0
  5 34  1  0
  6 35  1  0
  6 36  1  0
  7 37  1  0
 10 38  1  0
 10 39  1  0
 11 40  1  0
 11 41  1  0
 14 42  1  0
 15 43  1  0
 16 44  1  0
 17 45  1  0
 21 46  1  0
 22 47  1  0
 23 48  1  0
M  END
>  <Energy>  (874) 
49.763793121777283

>  <compound_id>  (874) 
10597

>  <target_id>  (874) 
1

>  <reference_id>  (874) 
99

>  <inspiration_ids>  (874) 
[35, 99]

>  <energy_score>  (874) 
-18.026184774351464

>  <distance_score>  (874) 
13.378246372599582

>  <path>  (874) 
/opt/xchem-fragalysis-2/maxwin/BulkDock/SCRATCH/511023/C10597-P99/C10597-P99.minimised.mol

>  <scratch_subdir>  (874) 
/opt/xchem-fragalysis-2/maxwin/BulkDock/SCRATCH/511023/C10597-P99

>  <fragmenstein_runtime>  (874) 
48.521355628967285

>  <fragmenstein_outcome>  (874) 
too moved

>  <fragmenstein_mode>  (874) 
expansion

>  <fragmenstein_error>  (874) 


$$$$
C10598-P35
     RDKit          3D

 51 52  0  0  0  0  0  0  0  0999 V2000
  -15.7914  -17.7346   21.7470 C   0  0  0  0  0  0  0  0  0  0  0  0
  -14.9503  -16.8318   22.6999 C   0  0  0  0  0  0  0  0  0  0  0  0
  -15.3161  -17.0776   24.1840 C   0  0  0  0  0  0  0  0  0  0  0  0
  -13.4820  -16.1444   21.9686 C   0  0  0  0  0  0  0  0  0  0  0  0
  -11.7075  -15.5294   22.3450 C   0  0  0  0  0  0  0  0  0  0  0  0
  -12.2550  -16.1638   24.1441 C   0  0  0  0  0  0  0  0  0  0  0  0
  -11.7936  -17.7476   24.6287 N   0  0  0  0  0  0  0  0  0  0  0  0
  -12.5280  -19.0954   24.4848 C   0  0  0  0  0  0  0  0  0  0  0  0
  -13.6360  -19.3422   24.0747 O   0  0  0  0  0  0  0  0  0  0  0  0
  -11.6387  -20.3429   24.8301 C   0  0  0  0  0  0  0  0  0  0  0  0
  -12.1600  -21.8310   24.4112 C   0  0  0  0  0  0  0  0  0  0  0  0
  -12.1106  -23.0010   25.5289 C   0  0  0  0  0  0  0  0  0  0  0  0
  -11.6150  -22.9294   26.7674 N   0  0  0  0  0  0  0  0  0  0  0  0
  -11.7264  -24.1777   27.3206 C   0  0  0  0  0  0  0  0  0  0  0  0
  -12.3114  -25.0400   26.4315 C   0  0  0  0  0  0  0  0  0  0  0  0
  -12.5713  -24.2837   25.3181 N   0  0  0  0  0  0  0  0  0  0  0  0
  -13.2334  -24.7583   24.1363 C   0  0  0  0  0  0  0  0  0  0  0  0
  -11.5248  -13.9633   20.9900 N   0  0  0  0  0  0  0  0  0  0  0  0
  -10.2209  -13.6299   19.5977 C   0  0  0  0  0  0  0  0  0  0  0  0
   -9.2023  -14.2978   19.3827 O   0  0  0  0  0  0  0  0  0  0  0  0
  -10.6902  -12.2303   18.4004 C   0  0  0  0  0  0  0  0  0  0  0  0
  -11.8915  -11.4353   17.9326 C   0  0  0  0  0  0  0  0  0  0  0  0
  -12.1957  -11.4196   16.2883 C   0  0  0  0  0  0  0  0  0  0  0  0
  -11.1742  -12.1683   16.0199 N   0  0  0  0  0  0  0  0  0  0  0  0
  -10.4110  -12.3688   17.1663 N   0  0  0  0  0  0  0  0  0  0  0  0
  -16.8608  -17.5166   21.8687 H   0  0  0  0  0  0  0  0  0  0  0  0
  -15.6832  -18.8015   21.9622 H   0  0  0  0  0  0  0  0  0  0  0  0
  -15.5530  -17.5409   20.6966 H   0  0  0  0  0  0  0  0  0  0  0  0
  -15.6267  -15.9757   22.6024 H   0  0  0  0  0  0  0  0  0  0  0  0
  -15.5620  -16.1333   24.6868 H   0  0  0  0  0  0  0  0  0  0  0  0
  -14.5699  -17.5515   24.8070 H   0  0  0  0  0  0  0  0  0  0  0  0
  -16.2182  -17.6971   24.2580 H   0  0  0  0  0  0  0  0  0  0  0  0
  -13.4715  -16.1870   20.8743 H   0  0  0  0  0  0  0  0  0  0  0  0
  -14.0084  -15.2767   21.9675 H   0  0  0  0  0  0  0  0  0  0  0  0
  -11.5069  -14.7066   22.9810 H   0  0  0  0  0  0  0  0  0  0  0  0
  -12.1304  -15.5639   25.0451 H   0  0  0  0  0  0  0  0  0  0  0  0
  -13.3155  -16.1922   24.1524 H   0  0  0  0  0  0  0  0  0  0  0  0
  -10.8388  -17.9158   24.9316 H   0  0  0  0  0  0  0  0  0  0  0  0
  -11.3456  -20.3222   25.8679 H   0  0  0  0  0  0  0  0  0  0  0  0
  -10.7609  -20.1587   24.2056 H   0  0  0  0  0  0  0  0  0  0  0  0
  -13.1711  -21.7920   23.9850 H   0  0  0  0  0  0  0  0  0  0  0  0
  -11.5351  -22.1763   23.5746 H   0  0  0  0  0  0  0  0  0  0  0  0
  -11.3858  -24.3829   28.3263 H   0  0  0  0  0  0  0  0  0  0  0  0
  -12.5743  -26.0852   26.5035 H   0  0  0  0  0  0  0  0  0  0  0  0
  -12.5603  -24.6347   23.2842 H   0  0  0  0  0  0  0  0  0  0  0  0
  -13.4871  -25.8152   24.2516 H   0  0  0  0  0  0  0  0  0  0  0  0
  -14.1474  -24.1770   23.9902 H   0  0  0  0  0  0  0  0  0  0  0  0
  -12.1497  -13.2830   20.9973 H   0  0  0  0  0  0  0  0  0  0  0  0
  -12.7412  -10.9042   18.3498 H   0  0  0  0  0  0  0  0  0  0  0  0
  -13.0265  -11.0187   15.7208 H   0  0  0  0  0  0  0  0  0  0  0  0
  -10.8266  -12.4830   15.1200 H   0  0  0  0  0  0  0  0  0  0  0  0
  1  2  1  0
  2  3  1  0
  2  4  1  0
  4  5  1  0
  5  6  1  0
  6  7  1  0
  7  8  1  0
  8  9  2  0
  8 10  1  0
 10 11  1  0
 11 12  1  0
 12 13  2  0
 13 14  1  0
 14 15  2  0
 15 16  1  0
 16 17  1  0
  5 18  1  0
 18 19  1  0
 19 20  2  0
 19 21  1  0
 21 22  1  0
 22 23  2  0
 23 24  1  0
 24 25  1  0
 16 12  1  0
 25 21  2  0
  1 26  1  0
  1 27  1  0
  1 28  1  0
  2 29  1  0
  3 30  1  0
  3 31  1  0
  3 32  1  0
  4 33  1  0
  4 34  1  0
  5 35  1  0
  6 36  1  0
  6 37  1  0
  7 38  1  0
 10 39  1  0
 10 40  1  0
 11 41  1  0
 11 42  1  0
 14 43  1  0
 15 44  1  0
 17 45  1  0
 17 46  1  0
 17 47  1  0
 18 48  1  0
 22 49  1  0
 23 50  1  0
 24 51  1  0
M  END
>  <Energy>  (875) 
663.82909039660797

>  <compound_id>  (875) 
10598

>  <target_id>  (875) 
1

>  <reference_id>  (875) 
35

>  <inspiration_ids>  (875) 
[35, 99]

>  <energy_score>  (875) 
606.7147517173079

>  <distance_score>  (875) 
10.966466234145074

>  <path>  (875) 
/opt/xchem-fragalysis-2/maxwin/BulkDock/SCRATCH/511023/C10598-P35/C10598-P35.minimised.mol

>  <scratch_subdir>  (875) 
/opt/xchem-fragalysis-2/maxwin/BulkDock/SCRATCH/511023/C10598-P35

>  <fragmenstein_runtime>  (875) 
32.61196780204773

>  <fragmenstein_outcome>  (875) 
too moved

>  <fragmenstein_mode>  (875) 
expansion

>  <fragmenstein_error>  (875) 


$$$$
C10598-P99
     RDKit          3D

 51 52  0  0  0  0  0  0  0  0999 V2000
   -2.7052  -21.8414   23.6998 C   0  0  0  0  0  0  0  0  0  0  0  0
   -3.5008  -22.2881   24.9275 C   0  0  0  0  0  0  0  0  0  0  0  0
   -2.5268  -22.7868   26.0012 C   0  0  0  0  0  0  0  0  0  0  0  0
   -4.3907  -21.1911   25.5051 C   0  0  0  0  0  0  0  0  0  0  0  0
   -5.5968  -20.7557   24.6635 C   0  0  0  0  0  0  0  0  0  0  0  0
   -6.4865  -19.9628   25.6450 C   0  0  0  0  0  0  0  0  0  0  0  0
   -7.4762  -20.7544   26.3980 N   0  0  0  0  0  0  0  0  0  0  0  0
   -8.5747  -20.3294   27.3107 C   0  0  0  0  0  0  0  0  0  0  0  0
   -8.8542  -19.2344   27.7115 O   0  0  0  0  0  0  0  0  0  0  0  0
   -9.9000  -21.7390   27.8636 C   0  0  0  0  0  0  0  0  0  0  0  0
  -10.7586  -22.3274   29.0362 C   0  0  0  0  0  0  0  0  0  0  0  0
  -10.1638  -23.7179   29.5109 C   0  0  0  0  0  0  0  0  0  0  0  0
  -10.0757  -24.2799   31.0807 N   0  0  0  0  0  0  0  0  0  0  0  0
   -8.8535  -24.9617   31.3803 C   0  0  0  0  0  0  0  0  0  0  0  0
   -8.1270  -25.2533   30.0760 C   0  0  0  0  0  0  0  0  0  0  0  0
   -9.3989  -24.7949   28.8226 N   0  0  0  0  0  0  0  0  0  0  0  0
   -9.7102  -24.8621   27.3931 C   0  0  0  0  0  0  0  0  0  0  0  0
   -5.3063  -20.0265   23.4045 N   0  0  0  0  0  0  0  0  0  0  0  0
   -6.1870  -19.5894   22.3320 C   0  0  0  0  0  0  0  0  0  0  0  0
   -7.3789  -19.6394   22.2351 O   0  0  0  0  0  0  0  0  0  0  0  0
   -5.4442  -19.0703   21.0757 C   0  0  0  0  0  0  0  0  0  0  0  0
   -4.0925  -18.6435   20.8720 C   0  0  0  0  0  0  0  0  0  0  0  0
   -3.9536  -18.3787   19.5222 C   0  0  0  0  0  0  0  0  0  0  0  0
   -5.1870  -18.5743   18.9853 N   0  0  0  0  0  0  0  0  0  0  0  0
   -6.0916  -18.9780   19.8844 N   0  0  0  0  0  0  0  0  0  0  0  0
   -2.1695  -20.9052   23.8888 H   0  0  0  0  0  0  0  0  0  0  0  0
   -3.3573  -21.7014   22.8335 H   0  0  0  0  0  0  0  0  0  0  0  0
   -1.9673  -22.6000   23.4158 H   0  0  0  0  0  0  0  0  0  0  0  0
   -4.1263  -23.1285   24.6208 H   0  0  0  0  0  0  0  0  0  0  0  0
   -3.0644  -23.1555   26.8807 H   0  0  0  0  0  0  0  0  0  0  0  0
   -1.9146  -23.6110   25.6198 H   0  0  0  0  0  0  0  0  0  0  0  0
   -1.8535  -21.9867   26.3275 H   0  0  0  0  0  0  0  0  0  0  0  0
   -4.7902  -21.6002   26.4392 H   0  0  0  0  0  0  0  0  0  0  0  0
   -3.7777  -20.3157   25.7558 H   0  0  0  0  0  0  0  0  0  0  0  0
   -6.1483  -21.6452   24.3373 H   0  0  0  0  0  0  0  0  0  0  0  0
   -5.8961  -19.3201   26.3038 H   0  0  0  0  0  0  0  0  0  0  0  0
   -7.1057  -19.2577   25.0756 H   0  0  0  0  0  0  0  0  0  0  0  0
   -7.4708  -21.7484   26.3364 H   0  0  0  0  0  0  0  0  0  0  0  0
   -9.2077  -22.6016   27.8929 H   0  0  0  0  0  0  0  0  0  0  0  0
  -10.6537  -21.8015   27.0531 H   0  0  0  0  0  0  0  0  0  0  0  0
  -11.7677  -22.5199   28.6784 H   0  0  0  0  0  0  0  0  0  0  0  0
  -10.8446  -21.6500   29.8849 H   0  0  0  0  0  0  0  0  0  0  0  0
   -8.6625  -25.3294   32.3611 H   0  0  0  0  0  0  0  0  0  0  0  0
   -7.6465  -26.2266   29.9061 H   0  0  0  0  0  0  0  0  0  0  0  0
   -8.9267  -24.4055   26.7955 H   0  0  0  0  0  0  0  0  0  0  0  0
  -10.0178  -25.8628   27.0878 H   0  0  0  0  0  0  0  0  0  0  0  0
  -10.6042  -24.2599   27.1896 H   0  0  0  0  0  0  0  0  0  0  0  0
   -4.3598  -19.7534   23.1854 H   0  0  0  0  0  0  0  0  0  0  0  0
   -3.3095  -18.5725   21.6122 H   0  0  0  0  0  0  0  0  0  0  0  0
   -3.1134  -18.0586   18.9233 H   0  0  0  0  0  0  0  0  0  0  0  0
   -5.4867  -18.4625   18.0219 H   0  0  0  0  0  0  0  0  0  0  0  0
  1  2  1  0
  2  3  1  0
  2  4  1  0
  4  5  1  0
  5  6  1  0
  6  7  1  0
  7  8  1  0
  8  9  2  0
  8 10  1  0
 10 11  1  0
 11 12  1  0
 12 13  2  0
 13 14  1  0
 14 15  2  0
 15 16  1  0
 16 17  1  0
  5 18  1  0
 18 19  1  0
 19 20  2  0
 19 21  1  0
 21 22  1  0
 22 23  2  0
 23 24  1  0
 24 25  1  0
 16 12  1  0
 25 21  2  0
  1 26  1  0
  1 27  1  0
  1 28  1  0
  2 29  1  0
  3 30  1  0
  3 31  1  0
  3 32  1  0
  4 33  1  0
  4 34  1  0
  5 35  1  0
  6 36  1  0
  6 37  1  0
  7 38  1  0
 10 39  1  0
 10 40  1  0
 11 41  1  0
 11 42  1  0
 14 43  1  0
 15 44  1  0
 17 45  1  0
 17 46  1  0
 17 47  1  0
 18 48  1  0
 22 49  1  0
 23 50  1  0
 24 51  1  0
M  END
>  <Energy>  (876) 
307.62510289815276

>  <compound_id>  (876) 
10598

>  <target_id>  (876) 
1

>  <reference_id>  (876) 
99

>  <inspiration_ids>  (876) 
[35, 99]

>  <energy_score>  (876) 
250.51076421884233

>  <distance_score>  (876) 
12.528875477968848

>  <path>  (876) 
/opt/xchem-fragalysis-2/maxwin/BulkDock/SCRATCH/511023/C10598-P99/C10598-P99.minimised.mol

>  <scratch_subdir>  (876) 
/opt/xchem-fragalysis-2/maxwin/BulkDock/SCRATCH/511023/C10598-P99

>  <fragmenstein_runtime>  (876) 
38.73106932640076

>  <fragmenstein_outcome>  (876) 
too moved

>  <fragmenstein_mode>  (876) 
expansion

>  <fragmenstein_error>  (876) 


$$$$
C10599-P35
     RDKit          3D

 46 48  0  0  0  0  0  0  0  0999 V2000
  -11.8556  -14.2157   22.4225 C   0  0  0  0  0  0  0  0  0  0  0  0
  -10.3639  -13.8491   22.1816 C   0  0  0  0  0  0  0  0  0  0  0  0
  -10.0162  -12.7022   23.1423 C   0  0  0  0  0  0  0  0  0  0  0  0
  -10.0967  -13.8028   20.5835 C   0  0  0  0  0  0  0  0  0  0  0  0
   -8.6718  -13.6215   19.5111 C   0  0  0  0  0  0  0  0  0  0  0  0
   -7.7339  -12.8045   17.9056 C   0  0  0  0  0  0  0  0  0  0  0  0
   -7.6039  -13.6290   17.0546 O   0  0  0  0  0  0  0  0  0  0  0  0
   -7.2953  -11.1371   17.6570 N   0  0  0  0  0  0  0  0  0  0  0  0
   -6.6801  -10.1588   16.0569 C   0  0  0  0  0  0  0  0  0  0  0  0
   -6.4148  -10.0465   14.0650 C   0  0  0  0  0  0  0  0  0  0  0  0
   -7.5761   -9.0148   13.3833 C   0  0  0  0  0  0  0  0  0  0  0  0
   -8.3812   -8.4533   14.3023 N   0  0  0  0  0  0  0  0  0  0  0  0
   -8.1823   -6.8471   14.9130 C   0  0  0  0  0  0  0  0  0  0  0  0
   -9.0893   -5.6827   14.6289 C   0  0  0  0  0  0  0  0  0  0  0  0
   -8.6514   -4.6205   15.3730 C   0  0  0  0  0  0  0  0  0  0  0  0
   -7.6540   -5.1135   16.1442 N   0  0  0  0  0  0  0  0  0  0  0  0
   -7.3806   -6.4267   15.9540 N   0  0  0  0  0  0  0  0  0  0  0  0
   -8.1388   -9.8011   14.7812 C   0  0  0  0  0  0  0  0  0  0  0  0
   -8.8501  -10.7490   14.3546 O   0  0  0  0  0  0  0  0  0  0  0  0
   -8.9652  -15.4797   19.4634 N   0  0  0  0  0  0  0  0  0  0  0  0
   -9.0652  -16.3368   20.6157 C   0  0  0  0  0  0  0  0  0  0  0  0
   -9.1714  -17.6424   20.2281 C   0  0  0  0  0  0  0  0  0  0  0  0
   -8.9790  -17.7156   18.9018 N   0  0  0  0  0  0  0  0  0  0  0  0
   -8.7346  -16.4760   18.5119 C   0  0  0  0  0  0  0  0  0  0  0  0
  -12.1130  -15.1555   21.9219 H   0  0  0  0  0  0  0  0  0  0  0  0
  -12.5365  -13.4415   22.0576 H   0  0  0  0  0  0  0  0  0  0  0  0
  -12.0517  -14.3561   23.4917 H   0  0  0  0  0  0  0  0  0  0  0  0
   -9.8638  -14.7090   22.6170 H   0  0  0  0  0  0  0  0  0  0  0  0
  -10.7554  -11.8985   23.1489 H   0  0  0  0  0  0  0  0  0  0  0  0
   -9.0257  -12.2803   22.9921 H   0  0  0  0  0  0  0  0  0  0  0  0
  -10.0164  -13.0904   24.1700 H   0  0  0  0  0  0  0  0  0  0  0  0
  -10.9028  -13.3248   20.0825 H   0  0  0  0  0  0  0  0  0  0  0  0
  -10.6121  -14.7398   20.3249 H   0  0  0  0  0  0  0  0  0  0  0  0
   -9.5136  -13.1972   18.9348 H   0  0  0  0  0  0  0  0  0  0  0  0
   -7.5660  -10.6108   18.4705 H   0  0  0  0  0  0  0  0  0  0  0  0
   -6.7339   -9.2051   16.5882 H   0  0  0  0  0  0  0  0  0  0  0  0
   -6.2665  -11.0041   13.5568 H   0  0  0  0  0  0  0  0  0  0  0  0
   -5.4371   -9.7121   13.6985 H   0  0  0  0  0  0  0  0  0  0  0  0
   -7.2145   -8.2454   12.7923 H   0  0  0  0  0  0  0  0  0  0  0  0
   -8.3310   -9.5218   12.7293 H   0  0  0  0  0  0  0  0  0  0  0  0
   -9.9557   -5.6515   13.9858 H   0  0  0  0  0  0  0  0  0  0  0  0
   -8.9958   -3.5997   15.4575 H   0  0  0  0  0  0  0  0  0  0  0  0
   -7.1211   -4.6201   16.8524 H   0  0  0  0  0  0  0  0  0  0  0  0
   -9.0393  -15.9689   21.6128 H   0  0  0  0  0  0  0  0  0  0  0  0
   -9.3121  -18.5200   20.8426 H   0  0  0  0  0  0  0  0  0  0  0  0
   -8.3312  -16.2792   17.5365 H   0  0  0  0  0  0  0  0  0  0  0  0
  1  2  1  0
  2  3  1  0
  2  4  1  0
  4  5  1  0
  5  6  1  0
  6  7  2  0
  6  8  1  0
  8  9  1  0
  9 10  1  0
 10 11  1  0
 11 12  1  0
 12 13  1  0
 13 14  1  0
 14 15  2  0
 15 16  1  0
 16 17  1  0
 12 18  1  0
 18 19  2  0
  5 20  1  0
 20 21  1  0
 21 22  2  0
 22 23  1  0
 23 24  2  0
 18  9  1  0
 24 20  1  0
 17 13  2  0
  1 25  1  0
  1 26  1  0
  1 27  1  0
  2 28  1  0
  3 29  1  0
  3 30  1  0
  3 31  1  0
  4 32  1  0
  4 33  1  0
  5 34  1  0
  8 35  1  0
  9 36  1  0
 10 37  1  0
 10 38  1  0
 11 39  1  0
 11 40  1  0
 14 41  1  0
 15 42  1  0
 16 43  1  0
 21 44  1  0
 22 45  1  0
 24 46  1  0
M  END
>  <Energy>  (877) 
713.53569118963492

>  <compound_id>  (877) 
10599

>  <target_id>  (877) 
1

>  <reference_id>  (877) 
35

>  <inspiration_ids>  (877) 
[35, 99]

>  <energy_score>  (877) 
658.9038167721643

>  <distance_score>  (877) 
12.971880946887888

>  <path>  (877) 
/opt/xchem-fragalysis-2/maxwin/BulkDock/SCRATCH/511023/C10599-P35/C10599-P35.minimised.mol

>  <scratch_subdir>  (877) 
/opt/xchem-fragalysis-2/maxwin/BulkDock/SCRATCH/511023/C10599-P35

>  <fragmenstein_runtime>  (877) 
33.631693840026855

>  <fragmenstein_outcome>  (877) 
too moved

>  <fragmenstein_mode>  (877) 
expansion

>  <fragmenstein_error>  (877) 


$$$$
C10599-P99
     RDKit          3D

 46 48  0  0  0  0  0  0  0  0999 V2000
  -10.2856  -19.1111   18.3614 C   0  0  0  0  0  0  0  0  0  0  0  0
   -9.2408  -18.0593   18.7203 C   0  0  0  0  0  0  0  0  0  0  0  0
   -8.6105  -18.4697   20.0688 C   0  0  0  0  0  0  0  0  0  0  0  0
   -8.0634  -17.5713   17.7571 C   0  0  0  0  0  0  0  0  0  0  0  0
   -8.0088  -17.2937   16.0134 C   0  0  0  0  0  0  0  0  0  0  0  0
   -7.6595  -15.9569   14.5571 C   0  0  0  0  0  0  0  0  0  0  0  0
   -6.6705  -16.2860   13.9170 O   0  0  0  0  0  0  0  0  0  0  0  0
   -8.6636  -14.4764   14.4474 N   0  0  0  0  0  0  0  0  0  0  0  0
   -8.4784  -12.9384   13.4604 C   0  0  0  0  0  0  0  0  0  0  0  0
   -8.9566  -12.9238   12.0903 C   0  0  0  0  0  0  0  0  0  0  0  0
   -9.7535  -11.6696   12.0416 C   0  0  0  0  0  0  0  0  0  0  0  0
   -9.0693  -10.3110   12.5951 N   0  0  0  0  0  0  0  0  0  0  0  0
   -8.3089   -8.8787   11.8086 C   0  0  0  0  0  0  0  0  0  0  0  0
   -6.6236   -7.7847   11.7231 C   0  0  0  0  0  0  0  0  0  0  0  0
   -6.1539   -7.7997   10.4076 C   0  0  0  0  0  0  0  0  0  0  0  0
   -7.2525   -8.1581    9.7188 N   0  0  0  0  0  0  0  0  0  0  0  0
   -8.3866   -8.7148   10.4548 N   0  0  0  0  0  0  0  0  0  0  0  0
   -8.4691  -11.0115   13.6545 C   0  0  0  0  0  0  0  0  0  0  0  0
   -8.0122  -10.2158   14.4427 O   0  0  0  0  0  0  0  0  0  0  0  0
   -8.6563  -18.6784   15.6692 N   0  0  0  0  0  0  0  0  0  0  0  0
   -9.4764  -19.1046   14.6604 C   0  0  0  0  0  0  0  0  0  0  0  0
   -9.7908  -20.4218   14.9428 C   0  0  0  0  0  0  0  0  0  0  0  0
   -9.0697  -20.8939   15.9940 N   0  0  0  0  0  0  0  0  0  0  0  0
   -8.3162  -19.8790   16.3357 C   0  0  0  0  0  0  0  0  0  0  0  0
   -9.8745  -20.1235   18.3696 H   0  0  0  0  0  0  0  0  0  0  0  0
  -11.0772  -19.1105   19.1223 H   0  0  0  0  0  0  0  0  0  0  0  0
  -10.7912  -18.9151   17.4153 H   0  0  0  0  0  0  0  0  0  0  0  0
   -9.8198  -17.1608   18.9556 H   0  0  0  0  0  0  0  0  0  0  0  0
   -8.0144  -19.3823   19.9611 H   0  0  0  0  0  0  0  0  0  0  0  0
   -7.9581  -17.6796   20.4530 H   0  0  0  0  0  0  0  0  0  0  0  0
   -9.3818  -18.6543   20.8245 H   0  0  0  0  0  0  0  0  0  0  0  0
   -7.1531  -18.0746   18.0871 H   0  0  0  0  0  0  0  0  0  0  0  0
   -8.0708  -16.5704   18.1719 H   0  0  0  0  0  0  0  0  0  0  0  0
   -8.3944  -16.4454   16.5166 H   0  0  0  0  0  0  0  0  0  0  0  0
   -9.4143  -14.5414   15.0175 H   0  0  0  0  0  0  0  0  0  0  0  0
   -9.4008  -12.7751   14.0463 H   0  0  0  0  0  0  0  0  0  0  0  0
   -9.6738  -13.7218   11.9200 H   0  0  0  0  0  0  0  0  0  0  0  0
   -8.1428  -12.8768   11.3846 H   0  0  0  0  0  0  0  0  0  0  0  0
  -10.5273  -11.8949   12.6599 H   0  0  0  0  0  0  0  0  0  0  0  0
  -10.1977  -11.7943   11.0408 H   0  0  0  0  0  0  0  0  0  0  0  0
   -5.7011   -8.2351   12.2284 H   0  0  0  0  0  0  0  0  0  0  0  0
   -5.1416   -7.9762   10.1166 H   0  0  0  0  0  0  0  0  0  0  0  0
   -7.3478   -8.2018    8.7117 H   0  0  0  0  0  0  0  0  0  0  0  0
   -9.8003  -18.4628   13.8538 H   0  0  0  0  0  0  0  0  0  0  0  0
  -10.4717  -21.0618   14.3961 H   0  0  0  0  0  0  0  0  0  0  0  0
   -7.5325  -19.9380   17.0792 H   0  0  0  0  0  0  0  0  0  0  0  0
  1  2  1  0
  2  3  1  0
  2  4  1  0
  4  5  1  0
  5  6  1  0
  6  7  2  0
  6  8  1  0
  8  9  1  0
  9 10  1  0
 10 11  1  0
 11 12  1  0
 12 13  1  0
 13 14  1  0
 14 15  2  0
 15 16  1  0
 16 17  1  0
 12 18  1  0
 18 19  2  0
  5 20  1  0
 20 21  1  0
 21 22  2  0
 22 23  1  0
 23 24  2  0
 18  9  1  0
 24 20  1  0
 17 13  2  0
  1 25  1  0
  1 26  1  0
  1 27  1  0
  2 28  1  0
  3 29  1  0
  3 30  1  0
  3 31  1  0
  4 32  1  0
  4 33  1  0
  5 34  1  0
  8 35  1  0
  9 36  1  0
 10 37  1  0
 10 38  1  0
 11 39  1  0
 11 40  1  0
 14 41  1  0
 15 42  1  0
 16 43  1  0
 21 44  1  0
 22 45  1  0
 24 46  1  0
M  END
>  <Energy>  (878) 
641.23416470480799

>  <compound_id>  (878) 
10599

>  <target_id>  (878) 
1

>  <reference_id>  (878) 
99

>  <inspiration_ids>  (878) 
[35, 99]

>  <energy_score>  (878) 
586.6022902873443

>  <distance_score>  (878) 
13.458931801464518

>  <path>  (878) 
/opt/xchem-fragalysis-2/maxwin/BulkDock/SCRATCH/511023/C10599-P99/C10599-P99.minimised.mol

>  <scratch_subdir>  (878) 
/opt/xchem-fragalysis-2/maxwin/BulkDock/SCRATCH/511023/C10599-P99

>  <fragmenstein_runtime>  (878) 
28.83089256286621

>  <fragmenstein_outcome>  (878) 
too moved

>  <fragmenstein_mode>  (878) 
expansion

>  <fragmenstein_error>  (878) 


$$$$
C10600-P35
     RDKit          3D

 39 40  0  0  0  0  0  0  0  0999 V2000
  -14.0193   -8.7996   23.0271 C   0  0  0  0  0  0  0  0  0  0  0  0
  -12.7065   -9.5743   23.0899 C   0  0  0  0  0  0  0  0  0  0  0  0
  -11.3829   -8.8522   22.5940 C   0  0  0  0  0  0  0  0  0  0  0  0
  -10.1437   -9.1803   23.6381 C   0  0  0  0  0  0  0  0  0  0  0  0
   -9.8269  -10.5471   24.1764 N   0  0  0  0  0  0  0  0  0  0  0  0
  -10.4765  -11.8214   23.9731 C   0  0  0  0  0  0  0  0  0  0  0  0
  -11.3875  -12.1285   23.2598 O   0  0  0  0  0  0  0  0  0  0  0  0
   -9.9302  -12.9212   24.8558 C   0  0  0  0  0  0  0  0  0  0  0  0
  -10.4130  -14.2737   24.8962 C   0  0  0  0  0  0  0  0  0  0  0  0
   -9.6115  -14.9436   25.7858 C   0  0  0  0  0  0  0  0  0  0  0  0
   -8.7497  -14.0079   26.2720 N   0  0  0  0  0  0  0  0  0  0  0  0
   -8.9176  -12.7764   25.7368 N   0  0  0  0  0  0  0  0  0  0  0  0
  -11.3006   -8.3811   20.7536 N   0  0  0  0  0  0  0  0  0  0  0  0
   -9.9254   -7.6491   19.7411 C   0  0  0  0  0  0  0  0  0  0  0  0
   -8.7438   -7.4498   20.1233 O   0  0  0  0  0  0  0  0  0  0  0  0
  -10.1386   -7.0055   18.2713 C   0  0  0  0  0  0  0  0  0  0  0  0
  -10.7074   -5.7139   16.8662 C   0  0  0  0  0  0  0  0  0  0  0  0
  -11.8254   -4.8725   16.5912 C   0  0  0  0  0  0  0  0  0  0  0  0
  -11.7515   -4.1998   15.3838 N   0  0  0  0  0  0  0  0  0  0  0  0
  -10.5943   -4.5131   14.8773 C   0  0  0  0  0  0  0  0  0  0  0  0
   -9.9265   -5.3765   15.6868 N   0  0  0  0  0  0  0  0  0  0  0  0
  -14.4346   -8.7733   22.0169 H   0  0  0  0  0  0  0  0  0  0  0  0
  -14.7671   -9.2962   23.6556 H   0  0  0  0  0  0  0  0  0  0  0  0
  -13.9044   -7.7779   23.4006 H   0  0  0  0  0  0  0  0  0  0  0  0
  -12.5646   -9.7920   24.1575 H   0  0  0  0  0  0  0  0  0  0  0  0
  -12.8605  -10.5425   22.6278 H   0  0  0  0  0  0  0  0  0  0  0  0
  -11.6405   -7.8763   23.0038 H   0  0  0  0  0  0  0  0  0  0  0  0
  -10.3952   -8.6306   24.5566 H   0  0  0  0  0  0  0  0  0  0  0  0
   -9.2182   -8.7266   23.3045 H   0  0  0  0  0  0  0  0  0  0  0  0
   -9.1396  -10.6401   24.9235 H   0  0  0  0  0  0  0  0  0  0  0  0
  -11.2277  -14.6819   24.3133 H   0  0  0  0  0  0  0  0  0  0  0  0
   -9.5764  -15.9746   26.1052 H   0  0  0  0  0  0  0  0  0  0  0  0
   -8.0133  -14.1350   26.9600 H   0  0  0  0  0  0  0  0  0  0  0  0
  -12.0475   -8.4989   20.2228 H   0  0  0  0  0  0  0  0  0  0  0  0
   -9.1017   -6.6295   18.4846 H   0  0  0  0  0  0  0  0  0  0  0  0
  -10.1664   -6.2032   18.9763 H   0  0  0  0  0  0  0  0  0  0  0  0
  -12.7108   -4.7325   17.1994 H   0  0  0  0  0  0  0  0  0  0  0  0
  -10.1791   -4.1424   13.9508 H   0  0  0  0  0  0  0  0  0  0  0  0
   -8.9794   -5.6858   15.5249 H   0  0  0  0  0  0  0  0  0  0  0  0
  1  2  1  0
  2  3  1  0
  3  4  1  0
  4  5  1  0
  5  6  1  0
  6  7  2  0
  6  8  1  0
  8  9  1  0
  9 10  2  0
 10 11  1  0
 11 12  1  0
  3 13  1  0
 13 14  1  0
 14 15  2  0
 14 16  1  0
 16 17  1  0
 17 18  2  0
 18 19  1  0
 19 20  2  0
 20 21  1  0
 12  8  2  0
 21 17  1  0
  1 22  1  0
  1 23  1  0
  1 24  1  0
  2 25  1  0
  2 26  1  0
  3 27  1  0
  4 28  1  0
  4 29  1  0
  5 30  1  0
  9 31  1  0
 10 32  1  0
 11 33  1  0
 13 34  1  0
 16 35  1  0
 16 36  1  0
 18 37  1  0
 20 38  1  0
 21 39  1  0
M  END
>  <Energy>  (879) 
396.03043877110053

>  <compound_id>  (879) 
10600

>  <target_id>  (879) 
1

>  <reference_id>  (879) 
35

>  <inspiration_ids>  (879) 
[35, 99]

>  <energy_score>  (879) 
313.12846877707943

>  <distance_score>  (879) 
12.908810153283188

>  <path>  (879) 
/opt/xchem-fragalysis-2/maxwin/BulkDock/SCRATCH/511023/C10600-P35/C10600-P35.minimised.mol

>  <scratch_subdir>  (879) 
/opt/xchem-fragalysis-2/maxwin/BulkDock/SCRATCH/511023/C10600-P35

>  <fragmenstein_runtime>  (879) 
26.987964391708374

>  <fragmenstein_outcome>  (879) 
too moved

>  <fragmenstein_mode>  (879) 
expansion

>  <fragmenstein_error>  (879) 


$$$$
C10600-P99
     RDKit          3D

 39 40  0  0  0  0  0  0  0  0999 V2000
  -11.5464  -15.9013   26.3574 C   0  0  0  0  0  0  0  0  0  0  0  0
  -11.2803  -15.1695   25.0590 C   0  0  0  0  0  0  0  0  0  0  0  0
  -11.4894  -13.6322   25.0853 C   0  0  0  0  0  0  0  0  0  0  0  0
  -12.9728  -13.1754   25.0314 C   0  0  0  0  0  0  0  0  0  0  0  0
  -13.8848  -14.0982   25.6593 N   0  0  0  0  0  0  0  0  0  0  0  0
  -15.0772  -14.7141   25.1725 C   0  0  0  0  0  0  0  0  0  0  0  0
  -15.6715  -14.5629   24.1465 O   0  0  0  0  0  0  0  0  0  0  0  0
  -15.5088  -15.7589   26.1364 C   0  0  0  0  0  0  0  0  0  0  0  0
  -16.5276  -16.7339   25.9726 C   0  0  0  0  0  0  0  0  0  0  0  0
  -16.4247  -17.5633   27.0609 C   0  0  0  0  0  0  0  0  0  0  0  0
  -15.3600  -17.1000   27.7672 N   0  0  0  0  0  0  0  0  0  0  0  0
  -14.8668  -15.9362   27.3110 N   0  0  0  0  0  0  0  0  0  0  0  0
  -10.6918  -13.1768   23.9536 N   0  0  0  0  0  0  0  0  0  0  0  0
  -10.9689  -13.1853   22.5414 C   0  0  0  0  0  0  0  0  0  0  0  0
  -11.9496  -13.4903   21.9501 O   0  0  0  0  0  0  0  0  0  0  0  0
   -9.6270  -12.8014   21.7567 C   0  0  0  0  0  0  0  0  0  0  0  0
   -9.0745  -13.1612   19.8692 C   0  0  0  0  0  0  0  0  0  0  0  0
   -8.0159  -13.7403   19.4169 C   0  0  0  0  0  0  0  0  0  0  0  0
   -7.0595  -12.8945   19.0312 N   0  0  0  0  0  0  0  0  0  0  0  0
   -7.8091  -12.2752   18.2204 C   0  0  0  0  0  0  0  0  0  0  0  0
   -9.1397  -12.4331   18.6399 N   0  0  0  0  0  0  0  0  0  0  0  0
  -10.8305  -16.7211   26.4670 H   0  0  0  0  0  0  0  0  0  0  0  0
  -12.5317  -16.3654   26.3502 H   0  0  0  0  0  0  0  0  0  0  0  0
  -11.4624  -15.2417   27.2241 H   0  0  0  0  0  0  0  0  0  0  0  0
  -11.8637  -15.6232   24.2472 H   0  0  0  0  0  0  0  0  0  0  0  0
  -10.2281  -15.3695   24.8069 H   0  0  0  0  0  0  0  0  0  0  0  0
  -11.0162  -13.2215   25.9849 H   0  0  0  0  0  0  0  0  0  0  0  0
  -13.0758  -12.2094   25.5375 H   0  0  0  0  0  0  0  0  0  0  0  0
  -13.3167  -13.0315   24.0036 H   0  0  0  0  0  0  0  0  0  0  0  0
  -13.7161  -14.4128   26.6160 H   0  0  0  0  0  0  0  0  0  0  0  0
  -17.2052  -16.8290   25.1356 H   0  0  0  0  0  0  0  0  0  0  0  0
  -16.9592  -18.4547   27.3484 H   0  0  0  0  0  0  0  0  0  0  0  0
  -14.9006  -17.5252   28.5681 H   0  0  0  0  0  0  0  0  0  0  0  0
   -9.7728  -12.7767   24.1087 H   0  0  0  0  0  0  0  0  0  0  0  0
   -9.1485  -13.5733   22.2835 H   0  0  0  0  0  0  0  0  0  0  0  0
   -9.1548  -11.9990   22.3367 H   0  0  0  0  0  0  0  0  0  0  0  0
   -8.3838  -14.6118   18.9019 H   0  0  0  0  0  0  0  0  0  0  0  0
   -7.3823  -11.5966   17.5162 H   0  0  0  0  0  0  0  0  0  0  0  0
   -9.9810  -11.9909   18.2864 H   0  0  0  0  0  0  0  0  0  0  0  0
  1  2  1  0
  2  3  1  0
  3  4  1  0
  4  5  1  0
  5  6  1  0
  6  7  2  0
  6  8  1  0
  8  9  1  0
  9 10  2  0
 10 11  1  0
 11 12  1  0
  3 13  1  0
 13 14  1  0
 14 15  2  0
 14 16  1  0
 16 17  1  0
 17 18  2  0
 18 19  1  0
 19 20  2  0
 20 21  1  0
 12  8  2  0
 21 17  1  0
  1 22  1  0
  1 23  1  0
  1 24  1  0
  2 25  1  0
  2 26  1  0
  3 27  1  0
  4 28  1  0
  4 29  1  0
  5 30  1  0
  9 31  1  0
 10 32  1  0
 11 33  1  0
 13 34  1  0
 16 35  1  0
 16 36  1  0
 18 37  1  0
 20 38  1  0
 21 39  1  0
M  END
>  <Energy>  (880) 
241.63437888515844

>  <compound_id>  (880) 
10600

>  <target_id>  (880) 
1

>  <reference_id>  (880) 
99

>  <inspiration_ids>  (880) 
[35, 99]

>  <energy_score>  (880) 
158.7324088911381

>  <distance_score>  (880) 
13.612638797220315

>  <path>  (880) 
/opt/xchem-fragalysis-2/maxwin/BulkDock/SCRATCH/511023/C10600-P99/C10600-P99.minimised.mol

>  <scratch_subdir>  (880) 
/opt/xchem-fragalysis-2/maxwin/BulkDock/SCRATCH/511023/C10600-P99

>  <fragmenstein_runtime>  (880) 
46.5462007522583

>  <fragmenstein_outcome>  (880) 
too moved

>  <fragmenstein_mode>  (880) 
expansion

>  <fragmenstein_error>  (880) 


$$$$
C10601-P35
     RDKit          3D

 46 47  0  0  0  0  0  0  0  0999 V2000
  -16.1071  -13.3614   24.6289 C   0  0  0  0  0  0  0  0  0  0  0  0
  -14.5021  -12.5073   24.5718 C   0  0  0  0  0  0  0  0  0  0  0  0
  -14.6860  -12.0893   23.3377 N   0  0  0  0  0  0  0  0  0  0  0  0
  -13.9378  -12.9606   24.9469 C   0  0  0  0  0  0  0  0  0  0  0  0
  -13.5055  -14.6537   24.7740 C   0  0  0  0  0  0  0  0  0  0  0  0
  -13.3809  -15.4193   26.0407 N   0  0  0  0  0  0  0  0  0  0  0  0
  -12.2332  -16.1424   26.6238 C   0  0  0  0  0  0  0  0  0  0  0  0
  -11.0947  -16.2230   26.2567 O   0  0  0  0  0  0  0  0  0  0  0  0
  -12.7458  -17.0564   27.9620 C   0  0  0  0  0  0  0  0  0  0  0  0
  -12.1456  -18.3620   28.8150 O   0  0  0  0  0  0  0  0  0  0  0  0
  -12.4031  -20.1707   28.9030 C   0  0  0  0  0  0  0  0  0  0  0  0
  -11.5903  -21.3819   29.5541 C   0  0  0  0  0  0  0  0  0  0  0  0
  -10.9290  -22.1876   28.7089 N   0  0  0  0  0  0  0  0  0  0  0  0
  -11.1924  -23.4865   29.0585 C   0  0  0  0  0  0  0  0  0  0  0  0
  -11.8544  -23.5123   30.2506 C   0  0  0  0  0  0  0  0  0  0  0  0
  -11.9866  -22.1911   30.6212 N   0  0  0  0  0  0  0  0  0  0  0  0
  -12.3289  -21.8428   31.9741 C   0  0  0  0  0  0  0  0  0  0  0  0
  -15.3124  -10.6072   22.9894 C   0  0  0  0  0  0  0  0  0  0  0  0
  -15.5750   -9.6966   23.6560 O   0  0  0  0  0  0  0  0  0  0  0  0
  -15.5692  -10.4523   21.4929 C   0  0  0  0  0  0  0  0  0  0  0  0
  -15.9825  -11.4307   20.5418 C   0  0  0  0  0  0  0  0  0  0  0  0
  -16.0154  -10.8031   19.3157 C   0  0  0  0  0  0  0  0  0  0  0  0
  -15.6136   -9.5258   19.5497 N   0  0  0  0  0  0  0  0  0  0  0  0
  -15.4662   -9.2468   20.8621 N   0  0  0  0  0  0  0  0  0  0  0  0
  -16.1115  -14.1663   23.8842 H   0  0  0  0  0  0  0  0  0  0  0  0
  -16.9161  -12.6675   24.3604 H   0  0  0  0  0  0  0  0  0  0  0  0
  -16.2636  -13.7721   25.6337 H   0  0  0  0  0  0  0  0  0  0  0  0
  -15.3241  -11.8160   25.2490 H   0  0  0  0  0  0  0  0  0  0  0  0
  -14.1392  -11.2612   24.8589 H   0  0  0  0  0  0  0  0  0  0  0  0
  -14.0105  -12.7300   26.2128 H   0  0  0  0  0  0  0  0  0  0  0  0
  -12.7416  -12.6235   24.8617 H   0  0  0  0  0  0  0  0  0  0  0  0
  -14.2529  -15.1696   24.1660 H   0  0  0  0  0  0  0  0  0  0  0  0
  -12.5447  -14.6997   24.2485 H   0  0  0  0  0  0  0  0  0  0  0  0
  -14.1790  -15.5042   26.6631 H   0  0  0  0  0  0  0  0  0  0  0  0
  -13.8046  -17.1728   27.6933 H   0  0  0  0  0  0  0  0  0  0  0  0
  -12.8114  -16.2614   28.7144 H   0  0  0  0  0  0  0  0  0  0  0  0
  -12.2418  -20.6116   27.9286 H   0  0  0  0  0  0  0  0  0  0  0  0
  -13.3783  -20.0986   29.2384 H   0  0  0  0  0  0  0  0  0  0  0  0
  -10.8457  -24.3179   28.4600 H   0  0  0  0  0  0  0  0  0  0  0  0
  -12.1736  -24.3278   30.8870 H   0  0  0  0  0  0  0  0  0  0  0  0
  -12.0638  -22.6701   32.6402 H   0  0  0  0  0  0  0  0  0  0  0  0
  -11.7507  -20.9715   32.2816 H   0  0  0  0  0  0  0  0  0  0  0  0
  -13.4048  -21.6723   32.0338 H   0  0  0  0  0  0  0  0  0  0  0  0
  -16.1999  -12.4702   20.7388 H   0  0  0  0  0  0  0  0  0  0  0  0
  -16.2255  -11.1539   18.3155 H   0  0  0  0  0  0  0  0  0  0  0  0
  -15.4157   -8.8091   18.8551 H   0  0  0  0  0  0  0  0  0  0  0  0
  1  2  1  0
  2  3  1  0
  3  4  1  0
  4  5  1  0
  5  6  1  0
  6  7  1  0
  7  8  2  0
  7  9  1  0
  9 10  1  0
 10 11  1  0
 11 12  1  0
 12 13  2  0
 13 14  1  0
 14 15  2  0
 15 16  1  0
 16 17  1  0
  3 18  1  0
 18 19  2  0
 18 20  1  0
 20 21  1  0
 21 22  2  0
 22 23  1  0
 23 24  1  0
 16 12  1  0
 24 20  2  0
  1 25  1  0
  1 26  1  0
  1 27  1  0
  2 28  1  0
  2 29  1  0
  4 30  1  0
  4 31  1  0
  5 32  1  0
  5 33  1  0
  6 34  1  0
  9 35  1  0
  9 36  1  0
 11 37  1  0
 11 38  1  0
 14 39  1  0
 15 40  1  0
 17 41  1  0
 17 42  1  0
 17 43  1  0
 21 44  1  0
 22 45  1  0
 23 46  1  0
M  END
>  <Energy>  (881) 
1045.4975170047305

>  <compound_id>  (881) 
10601

>  <target_id>  (881) 
1

>  <reference_id>  (881) 
35

>  <inspiration_ids>  (881) 
[35, 99]

>  <energy_score>  (881) 
926.7520930082464

>  <distance_score>  (881) 
11.89228393350591

>  <path>  (881) 
/opt/xchem-fragalysis-2/maxwin/BulkDock/SCRATCH/511023/C10601-P35/C10601-P35.minimised.mol

>  <scratch_subdir>  (881) 
/opt/xchem-fragalysis-2/maxwin/BulkDock/SCRATCH/511023/C10601-P35

>  <fragmenstein_runtime>  (881) 
32.44708442687988

>  <fragmenstein_outcome>  (881) 
too moved

>  <fragmenstein_mode>  (881) 
expansion

>  <fragmenstein_error>  (881) 


$$$$
C10601-P99
     RDKit          3D

 46 47  0  0  0  0  0  0  0  0999 V2000
   -6.4009  -19.1921   18.4573 C   0  0  0  0  0  0  0  0  0  0  0  0
   -8.1791  -19.2325   17.9624 C   0  0  0  0  0  0  0  0  0  0  0  0
   -8.3358  -18.4885   16.9228 N   0  0  0  0  0  0  0  0  0  0  0  0
   -8.6192  -19.7020   18.4821 C   0  0  0  0  0  0  0  0  0  0  0  0
  -10.3459  -19.9120   18.6343 C   0  0  0  0  0  0  0  0  0  0  0  0
  -10.8180  -20.4599   19.9305 N   0  0  0  0  0  0  0  0  0  0  0  0
  -10.3854  -21.6328   20.6906 C   0  0  0  0  0  0  0  0  0  0  0  0
   -9.4858  -22.4017   20.4953 O   0  0  0  0  0  0  0  0  0  0  0  0
  -11.3551  -21.8591   21.9623 C   0  0  0  0  0  0  0  0  0  0  0  0
  -11.1152  -22.9860   22.8296 O   0  0  0  0  0  0  0  0  0  0  0  0
  -12.1529  -23.2197   23.8086 C   0  0  0  0  0  0  0  0  0  0  0  0
  -12.0148  -24.5655   24.4998 C   0  0  0  0  0  0  0  0  0  0  0  0
  -12.9211  -25.0656   25.3348 N   0  0  0  0  0  0  0  0  0  0  0  0
  -12.4938  -26.3204   25.6738 C   0  0  0  0  0  0  0  0  0  0  0  0
  -11.2994  -26.5970   25.0741 C   0  0  0  0  0  0  0  0  0  0  0  0
  -10.9975  -25.4830   24.3389 N   0  0  0  0  0  0  0  0  0  0  0  0
   -9.8525  -25.3831   23.4766 C   0  0  0  0  0  0  0  0  0  0  0  0
   -9.0039  -18.6832   15.5274 C   0  0  0  0  0  0  0  0  0  0  0  0
   -9.6488  -19.5454   15.0857 O   0  0  0  0  0  0  0  0  0  0  0  0
   -8.6130  -17.5099   14.6125 C   0  0  0  0  0  0  0  0  0  0  0  0
   -7.4863  -16.6242   14.6965 C   0  0  0  0  0  0  0  0  0  0  0  0
   -7.6003  -15.7329   13.6505 C   0  0  0  0  0  0  0  0  0  0  0  0
   -8.7441  -16.0799   13.0044 N   0  0  0  0  0  0  0  0  0  0  0  0
   -9.3617  -17.1489   13.5385 N   0  0  0  0  0  0  0  0  0  0  0  0
   -5.8380  -18.6507   17.6900 H   0  0  0  0  0  0  0  0  0  0  0  0
   -6.3166  -18.6898   19.4283 H   0  0  0  0  0  0  0  0  0  0  0  0
   -6.0502  -20.2258   18.5576 H   0  0  0  0  0  0  0  0  0  0  0  0
   -7.6239  -19.9193   17.0652 H   0  0  0  0  0  0  0  0  0  0  0  0
   -8.0562  -18.0573   18.3952 H   0  0  0  0  0  0  0  0  0  0  0  0
   -8.3854  -20.9264   18.3915 H   0  0  0  0  0  0  0  0  0  0  0  0
   -8.4579  -19.3448   19.6820 H   0  0  0  0  0  0  0  0  0  0  0  0
  -10.6709  -20.5877   17.8363 H   0  0  0  0  0  0  0  0  0  0  0  0
  -10.8175  -18.9318   18.5045 H   0  0  0  0  0  0  0  0  0  0  0  0
  -11.5662  -19.9956   20.4338 H   0  0  0  0  0  0  0  0  0  0  0  0
  -12.3685  -21.9485   21.5523 H   0  0  0  0  0  0  0  0  0  0  0  0
  -11.2957  -20.9505   22.5726 H   0  0  0  0  0  0  0  0  0  0  0  0
  -13.1251  -23.2067   23.3020 H   0  0  0  0  0  0  0  0  0  0  0  0
  -12.1395  -22.4139   24.5496 H   0  0  0  0  0  0  0  0  0  0  0  0
  -13.0674  -26.9741   26.3149 H   0  0  0  0  0  0  0  0  0  0  0  0
  -10.6799  -27.4769   25.0946 H   0  0  0  0  0  0  0  0  0  0  0  0
  -10.1912  -25.2091   22.4524 H   0  0  0  0  0  0  0  0  0  0  0  0
   -9.2051  -24.5787   23.8245 H   0  0  0  0  0  0  0  0  0  0  0  0
   -9.3048  -26.3283   23.4855 H   0  0  0  0  0  0  0  0  0  0  0  0
   -6.7034  -16.6528   15.4414 H   0  0  0  0  0  0  0  0  0  0  0  0
   -6.9862  -14.9062   13.3258 H   0  0  0  0  0  0  0  0  0  0  0  0
   -9.1617  -15.6480   12.1868 H   0  0  0  0  0  0  0  0  0  0  0  0
  1  2  1  0
  2  3  1  0
  3  4  1  0
  4  5  1  0
  5  6  1  0
  6  7  1  0
  7  8  2  0
  7  9  1  0
  9 10  1  0
 10 11  1  0
 11 12  1  0
 12 13  2  0
 13 14  1  0
 14 15  2  0
 15 16  1  0
 16 17  1  0
  3 18  1  0
 18 19  2  0
 18 20  1  0
 20 21  1  0
 21 22  2  0
 22 23  1  0
 23 24  1  0
 16 12  1  0
 24 20  2  0
  1 25  1  0
  1 26  1  0
  1 27  1  0
  2 28  1  0
  2 29  1  0
  4 30  1  0
  4 31  1  0
  5 32  1  0
  5 33  1  0
  6 34  1  0
  9 35  1  0
  9 36  1  0
 11 37  1  0
 11 38  1  0
 14 39  1  0
 15 40  1  0
 17 41  1  0
 17 42  1  0
 17 43  1  0
 21 44  1  0
 22 45  1  0
 23 46  1  0
M  END
>  <Energy>  (882) 
878.00167305708976

>  <compound_id>  (882) 
10601

>  <target_id>  (882) 
1

>  <reference_id>  (882) 
99

>  <inspiration_ids>  (882) 
[35, 99]

>  <energy_score>  (882) 
759.2562490606083

>  <distance_score>  (882) 
12.520891984570165

>  <path>  (882) 
/opt/xchem-fragalysis-2/maxwin/BulkDock/SCRATCH/511023/C10601-P99/C10601-P99.minimised.mol

>  <scratch_subdir>  (882) 
/opt/xchem-fragalysis-2/maxwin/BulkDock/SCRATCH/511023/C10601-P99

>  <fragmenstein_runtime>  (882) 
30.85088562965393

>  <fragmenstein_outcome>  (882) 
too moved

>  <fragmenstein_mode>  (882) 
expansion

>  <fragmenstein_error>  (882) 


$$$$
C10604-P35
     RDKit          3D

 30 32  0  0  0  0  0  0  0  0999 V2000
   -5.8595  -11.5818   24.7302 O   0  0  0  0  0  0  0  0  0  0  0  0
   -6.0777  -12.3567   23.8093 C   0  0  0  0  0  0  0  0  0  0  0  0
   -5.5868  -13.6635   23.9982 O   0  0  0  0  0  0  0  0  0  0  0  0
   -5.2069  -14.1132   25.3612 C   0  0  0  0  0  0  0  0  0  0  0  0
   -5.9203  -15.3647   25.9070 C   0  0  0  0  0  0  0  0  0  0  0  0
   -7.1451  -15.4539   26.6349 C   0  0  0  0  0  0  0  0  0  0  0  0
   -7.2917  -16.7811   26.9717 C   0  0  0  0  0  0  0  0  0  0  0  0
   -6.1799  -17.4038   26.4929 N   0  0  0  0  0  0  0  0  0  0  0  0
   -5.3239  -16.5704   25.8781 N   0  0  0  0  0  0  0  0  0  0  0  0
   -7.0045  -12.0318   22.4161 C   0  0  0  0  0  0  0  0  0  0  0  0
   -8.4158  -12.2277   22.4511 C   0  0  0  0  0  0  0  0  0  0  0  0
   -9.2730  -13.0632   21.1446 N   0  0  0  0  0  0  0  0  0  0  0  0
   -8.5530  -13.1594   19.5975 C   0  0  0  0  0  0  0  0  0  0  0  0
   -7.2061  -12.5198   19.3912 C   0  0  0  0  0  0  0  0  0  0  0  0
   -6.5415  -12.1605   18.0011 N   0  0  0  0  0  0  0  0  0  0  0  0
   -5.1545  -12.0236   17.7613 C   0  0  0  0  0  0  0  0  0  0  0  0
   -4.9816  -11.7132   16.4321 C   0  0  0  0  0  0  0  0  0  0  0  0
   -6.1604  -11.8166   15.7771 N   0  0  0  0  0  0  0  0  0  0  0  0
   -7.0135  -12.1932   16.7056 C   0  0  0  0  0  0  0  0  0  0  0  0
   -6.4983  -11.9393   20.8302 N   0  0  0  0  0  0  0  0  0  0  0  0
   -5.3514  -13.3088   26.0904 H   0  0  0  0  0  0  0  0  0  0  0  0
   -4.1306  -14.3149   25.3140 H   0  0  0  0  0  0  0  0  0  0  0  0
   -7.8132  -14.6475   26.9000 H   0  0  0  0  0  0  0  0  0  0  0  0
   -8.0497  -17.3185   27.5190 H   0  0  0  0  0  0  0  0  0  0  0  0
   -5.9224  -18.3828   26.5611 H   0  0  0  0  0  0  0  0  0  0  0  0
   -9.1529  -11.4730   22.8251 H   0  0  0  0  0  0  0  0  0  0  0  0
   -9.3381  -13.0888   18.8763 H   0  0  0  0  0  0  0  0  0  0  0  0
   -4.4478  -12.1230   18.5754 H   0  0  0  0  0  0  0  0  0  0  0  0
   -4.0591  -11.4720   15.9200 H   0  0  0  0  0  0  0  0  0  0  0  0
   -8.0105  -12.4467   16.4753 H   0  0  0  0  0  0  0  0  0  0  0  0
  1  2  2  0
  2  3  1  0
  3  4  1  0
  4  5  1  0
  5  6  1  0
  6  7  2  0
  7  8  1  0
  8  9  1  0
  2 10  1  0
 10 11  2  0
 11 12  1  0
 12 13  2  0
 13 14  1  0
 14 15  1  0
 15 16  1  0
 16 17  2  0
 17 18  1  0
 18 19  2  0
 14 20  2  0
  9  5  2  0
 20 10  1  0
 19 15  1  0
  4 21  1  0
  4 22  1  0
  6 23  1  0
  7 24  1  0
  8 25  1  0
 11 26  1  0
 13 27  1  0
 16 28  1  0
 17 29  1  0
 19 30  1  0
M  END
>  <Energy>  (883) 
371.71481884176336

>  <compound_id>  (883) 
10604

>  <target_id>  (883) 
1

>  <reference_id>  (883) 
35

>  <inspiration_ids>  (883) 
[35, 99]

>  <energy_score>  (883) 
191.9587548528757

>  <distance_score>  (883) 
12.668841319312232

>  <path>  (883) 
/opt/xchem-fragalysis-2/maxwin/BulkDock/SCRATCH/511023/C10604-P35/C10604-P35.minimised.mol

>  <scratch_subdir>  (883) 
/opt/xchem-fragalysis-2/maxwin/BulkDock/SCRATCH/511023/C10604-P35

>  <fragmenstein_runtime>  (883) 
26.78544592857361

>  <fragmenstein_outcome>  (883) 
too moved

>  <fragmenstein_mode>  (883) 
expansion

>  <fragmenstein_error>  (883) 


$$$$
C10604-P99
     RDKit          3D

 30 32  0  0  0  0  0  0  0  0999 V2000
   -5.6508  -15.7047   25.8150 O   0  0  0  0  0  0  0  0  0  0  0  0
   -6.6859  -16.3390   25.6222 C   0  0  0  0  0  0  0  0  0  0  0  0
   -6.8527  -17.5200   26.2442 O   0  0  0  0  0  0  0  0  0  0  0  0
   -8.1157  -18.1563   26.4097 C   0  0  0  0  0  0  0  0  0  0  0  0
   -9.2150  -17.2560   26.8653 C   0  0  0  0  0  0  0  0  0  0  0  0
   -9.1923  -15.9667   27.4306 C   0  0  0  0  0  0  0  0  0  0  0  0
  -10.5114  -15.6629   27.6655 C   0  0  0  0  0  0  0  0  0  0  0  0
  -11.2422  -16.7117   27.2151 N   0  0  0  0  0  0  0  0  0  0  0  0
  -10.4750  -17.6371   26.6333 N   0  0  0  0  0  0  0  0  0  0  0  0
   -7.7379  -15.7180   24.7829 C   0  0  0  0  0  0  0  0  0  0  0  0
   -9.3565  -16.2377   24.0113 C   0  0  0  0  0  0  0  0  0  0  0  0
  -10.4670  -14.9178   22.8622 N   0  0  0  0  0  0  0  0  0  0  0  0
   -9.4875  -13.5494   21.6991 C   0  0  0  0  0  0  0  0  0  0  0  0
   -7.9434  -12.8897   22.6422 C   0  0  0  0  0  0  0  0  0  0  0  0
   -9.1621  -11.5671   22.8496 N   0  0  0  0  0  0  0  0  0  0  0  0
   -8.6043  -10.4059   23.1019 C   0  0  0  0  0  0  0  0  0  0  0  0
   -9.5548   -9.4373   23.0212 C   0  0  0  0  0  0  0  0  0  0  0  0
  -10.7788  -10.1173   23.4234 N   0  0  0  0  0  0  0  0  0  0  0  0
  -10.4500  -11.3844   23.4797 C   0  0  0  0  0  0  0  0  0  0  0  0
   -7.0696  -14.4719   23.6394 N   0  0  0  0  0  0  0  0  0  0  0  0
   -8.3691  -18.6665   25.4735 H   0  0  0  0  0  0  0  0  0  0  0  0
   -7.9739  -18.9370   27.1656 H   0  0  0  0  0  0  0  0  0  0  0  0
   -8.3469  -15.3431   27.6934 H   0  0  0  0  0  0  0  0  0  0  0  0
  -10.9731  -14.8100   28.1341 H   0  0  0  0  0  0  0  0  0  0  0  0
  -12.2458  -16.8920   27.2684 H   0  0  0  0  0  0  0  0  0  0  0  0
   -9.9481  -17.1141   24.3670 H   0  0  0  0  0  0  0  0  0  0  0  0
   -9.4628  -13.3987   20.6204 H   0  0  0  0  0  0  0  0  0  0  0  0
   -7.5607  -10.5020   23.2789 H   0  0  0  0  0  0  0  0  0  0  0  0
   -9.4629   -8.3865   23.0685 H   0  0  0  0  0  0  0  0  0  0  0  0
  -11.0993  -12.1369   23.8830 H   0  0  0  0  0  0  0  0  0  0  0  0
  1  2  2  0
  2  3  1  0
  3  4  1  0
  4  5  1  0
  5  6  1  0
  6  7  2  0
  7  8  1  0
  8  9  1  0
  2 10  1  0
 10 11  2  0
 11 12  1  0
 12 13  2  0
 13 14  1  0
 14 15  1  0
 15 16  1  0
 16 17  2  0
 17 18  1  0
 18 19  2  0
 14 20  2  0
  9  5  2  0
 20 10  1  0
 19 15  1  0
  4 21  1  0
  4 22  1  0
  6 23  1  0
  7 24  1  0
  8 25  1  0
 11 26  1  0
 13 27  1  0
 16 28  1  0
 17 29  1  0
 19 30  1  0
M  END
>  <Energy>  (884) 
1111.17548834337

>  <compound_id>  (884) 
10604

>  <target_id>  (884) 
1

>  <reference_id>  (884) 
99

>  <inspiration_ids>  (884) 
[35, 99]

>  <energy_score>  (884) 
931.4194243544816

>  <distance_score>  (884) 
13.41235492870749

>  <path>  (884) 
/opt/xchem-fragalysis-2/maxwin/BulkDock/SCRATCH/511023/C10604-P99/C10604-P99.minimised.mol

>  <scratch_subdir>  (884) 
/opt/xchem-fragalysis-2/maxwin/BulkDock/SCRATCH/511023/C10604-P99

>  <fragmenstein_runtime>  (884) 
28.25009322166443

>  <fragmenstein_outcome>  (884) 
too moved

>  <fragmenstein_mode>  (884) 
expansion

>  <fragmenstein_error>  (884) 


$$$$
C10605-P35
     RDKit          3D

 43 44  0  0  0  0  0  0  0  0999 V2000
  -13.4187  -15.4391   21.2202 C   0  0  0  0  0  0  0  0  0  0  0  0
  -12.0503  -15.2333   21.8383 N   0  0  0  0  0  0  0  0  0  0  0  0
  -12.8066  -15.8127   23.1090 C   0  0  0  0  0  0  0  0  0  0  0  0
  -12.6578  -17.3557   23.5859 C   0  0  0  0  0  0  0  0  0  0  0  0
  -13.5761  -18.1678   22.8510 O   0  0  0  0  0  0  0  0  0  0  0  0
  -11.2130  -17.9276   23.4686 C   0  0  0  0  0  0  0  0  0  0  0  0
  -10.9660  -19.2378   24.2210 N   0  0  0  0  0  0  0  0  0  0  0  0
   -9.5927  -19.0860   23.5920 C   0  0  0  0  0  0  0  0  0  0  0  0
  -11.4709  -20.5614   23.9889 C   0  0  0  0  0  0  0  0  0  0  0  0
  -12.1455  -20.9925   23.0905 O   0  0  0  0  0  0  0  0  0  0  0  0
  -10.9606  -21.5456   25.0173 C   0  0  0  0  0  0  0  0  0  0  0  0
  -11.4872  -22.8508   25.2702 C   0  0  0  0  0  0  0  0  0  0  0  0
  -10.8028  -23.3354   26.3567 C   0  0  0  0  0  0  0  0  0  0  0  0
   -9.8650  -22.3943   26.6341 N   0  0  0  0  0  0  0  0  0  0  0  0
   -9.8993  -21.3294   25.8249 N   0  0  0  0  0  0  0  0  0  0  0  0
  -11.4681  -13.6755   21.5052 C   0  0  0  0  0  0  0  0  0  0  0  0
  -11.6621  -12.7241   22.2263 O   0  0  0  0  0  0  0  0  0  0  0  0
  -10.1960  -13.3642   19.8383 C   0  0  0  0  0  0  0  0  0  0  0  0
   -8.5260  -13.1051   19.2646 C   0  0  0  0  0  0  0  0  0  0  0  0
   -7.1797  -12.7083   19.4977 C   0  0  0  0  0  0  0  0  0  0  0  0
   -6.3333  -12.3207   18.5375 N   0  0  0  0  0  0  0  0  0  0  0  0
   -7.2854  -11.7750   17.9245 C   0  0  0  0  0  0  0  0  0  0  0  0
   -8.3810  -12.5773   18.0213 N   0  0  0  0  0  0  0  0  0  0  0  0
  -14.1538  -14.6818   21.5132 H   0  0  0  0  0  0  0  0  0  0  0  0
  -13.8238  -16.4532   21.3280 H   0  0  0  0  0  0  0  0  0  0  0  0
  -13.3273  -15.4171   20.1376 H   0  0  0  0  0  0  0  0  0  0  0  0
  -12.2421  -15.2767   23.8891 H   0  0  0  0  0  0  0  0  0  0  0  0
  -13.8223  -15.4271   23.3092 H   0  0  0  0  0  0  0  0  0  0  0  0
  -12.9743  -17.3972   24.6346 H   0  0  0  0  0  0  0  0  0  0  0  0
  -13.3768  -19.1090   23.0415 H   0  0  0  0  0  0  0  0  0  0  0  0
  -11.1260  -18.0962   22.3851 H   0  0  0  0  0  0  0  0  0  0  0  0
  -10.5969  -17.1337   23.9119 H   0  0  0  0  0  0  0  0  0  0  0  0
   -8.9893  -19.9316   23.9464 H   0  0  0  0  0  0  0  0  0  0  0  0
   -9.5747  -19.2321   22.5008 H   0  0  0  0  0  0  0  0  0  0  0  0
   -9.0170  -18.2164   23.9410 H   0  0  0  0  0  0  0  0  0  0  0  0
  -12.3249  -23.3086   24.7625 H   0  0  0  0  0  0  0  0  0  0  0  0
  -10.8984  -24.2459   26.9287 H   0  0  0  0  0  0  0  0  0  0  0  0
   -9.1481  -22.4162   27.3475 H   0  0  0  0  0  0  0  0  0  0  0  0
  -10.5894  -12.7091   19.0400 H   0  0  0  0  0  0  0  0  0  0  0  0
  -10.2235  -14.3116   19.2658 H   0  0  0  0  0  0  0  0  0  0  0  0
   -6.7961  -12.3014   20.3988 H   0  0  0  0  0  0  0  0  0  0  0  0
   -7.0845  -10.9089   17.3123 H   0  0  0  0  0  0  0  0  0  0  0  0
   -9.2533  -12.3878   17.5872 H   0  0  0  0  0  0  0  0  0  0  0  0
  1  2  1  0
  2  3  1  0
  3  4  1  0
  4  5  1  0
  4  6  1  0
  6  7  1  0
  7  8  1  0
  7  9  1  0
  9 10  2  0
  9 11  1  0
 11 12  1  0
 12 13  2  0
 13 14  1  0
 14 15  1  0
  2 16  1  0
 16 17  2  0
 16 18  1  0
 18 19  1  0
 19 20  2  0
 20 21  1  0
 21 22  2  0
 22 23  1  0
 15 11  2  0
 23 19  1  0
  1 24  1  0
  1 25  1  0
  1 26  1  0
  3 27  1  0
  3 28  1  0
  4 29  1  0
  5 30  1  0
  6 31  1  0
  6 32  1  0
  8 33  1  0
  8 34  1  0
  8 35  1  0
 12 36  1  0
 13 37  1  0
 14 38  1  0
 18 39  1  0
 18 40  1  0
 20 41  1  0
 22 42  1  0
 23 43  1  0
M  END
>  <Energy>  (885) 
479.02603422137918

>  <compound_id>  (885) 
10605

>  <target_id>  (885) 
1

>  <reference_id>  (885) 
35

>  <inspiration_ids>  (885) 
[35, 99]

>  <energy_score>  (885) 
346.4692624655381

>  <distance_score>  (885) 
12.116376210670836

>  <path>  (885) 
/opt/xchem-fragalysis-2/maxwin/BulkDock/SCRATCH/511023/C10605-P35/C10605-P35.minimised.mol

>  <scratch_subdir>  (885) 
/opt/xchem-fragalysis-2/maxwin/BulkDock/SCRATCH/511023/C10605-P35

>  <fragmenstein_runtime>  (885) 
35.882784366607666

>  <fragmenstein_outcome>  (885) 
too moved

>  <fragmenstein_mode>  (885) 
expansion

>  <fragmenstein_error>  (885) 


$$$$
C10605-P99
     RDKit          3D

 43 44  0  0  0  0  0  0  0  0999 V2000
   -4.4298   -9.1359   12.7853 C   0  0  0  0  0  0  0  0  0  0  0  0
   -5.3719   -9.0817   12.0442 N   0  0  0  0  0  0  0  0  0  0  0  0
   -5.2908  -11.0568   12.5991 C   0  0  0  0  0  0  0  0  0  0  0  0
   -6.6098  -12.5425   12.2459 C   0  0  0  0  0  0  0  0  0  0  0  0
   -7.0167  -12.5743   10.8134 O   0  0  0  0  0  0  0  0  0  0  0  0
   -6.3127  -14.3498   12.2065 C   0  0  0  0  0  0  0  0  0  0  0  0
   -7.1365  -15.7845   12.6042 N   0  0  0  0  0  0  0  0  0  0  0  0
   -8.1295  -14.8354   13.0864 C   0  0  0  0  0  0  0  0  0  0  0  0
   -6.8444  -16.8186   13.6647 C   0  0  0  0  0  0  0  0  0  0  0  0
   -6.0103  -16.8258   14.5384 O   0  0  0  0  0  0  0  0  0  0  0  0
   -7.7557  -18.0283   13.8092 C   0  0  0  0  0  0  0  0  0  0  0  0
   -7.5713  -18.9832   14.9013 C   0  0  0  0  0  0  0  0  0  0  0  0
   -8.6944  -19.7659   14.9444 C   0  0  0  0  0  0  0  0  0  0  0  0
   -9.4662  -19.3117   13.9213 N   0  0  0  0  0  0  0  0  0  0  0  0
   -8.9436  -18.2674   13.2300 N   0  0  0  0  0  0  0  0  0  0  0  0
   -4.9429   -8.2839   10.5177 C   0  0  0  0  0  0  0  0  0  0  0  0
   -4.5276   -8.8622    9.5173 O   0  0  0  0  0  0  0  0  0  0  0  0
   -4.9063   -6.3251   10.3190 C   0  0  0  0  0  0  0  0  0  0  0  0
   -4.1832   -4.9389    9.0068 C   0  0  0  0  0  0  0  0  0  0  0  0
   -5.1208   -3.8421    7.8272 C   0  0  0  0  0  0  0  0  0  0  0  0
   -4.5072   -2.8980    7.1562 N   0  0  0  0  0  0  0  0  0  0  0  0
   -3.3425   -3.2820    7.5145 C   0  0  0  0  0  0  0  0  0  0  0  0
   -3.3089   -4.6405    7.8718 N   0  0  0  0  0  0  0  0  0  0  0  0
   -4.7374   -8.1179   12.7917 H   0  0  0  0  0  0  0  0  0  0  0  0
   -3.9850   -9.6703   12.0472 H   0  0  0  0  0  0  0  0  0  0  0  0
   -4.9714   -9.5206   13.5574 H   0  0  0  0  0  0  0  0  0  0  0  0
   -4.4450  -11.3334   12.0498 H   0  0  0  0  0  0  0  0  0  0  0  0
   -5.2429  -11.0149   13.6680 H   0  0  0  0  0  0  0  0  0  0  0  0
   -7.5131  -12.2929   12.8096 H   0  0  0  0  0  0  0  0  0  0  0  0
   -7.9467  -12.8580   10.7628 H   0  0  0  0  0  0  0  0  0  0  0  0
   -6.2279  -14.5655   11.1282 H   0  0  0  0  0  0  0  0  0  0  0  0
   -5.2927  -14.5342   12.5492 H   0  0  0  0  0  0  0  0  0  0  0  0
   -8.5015  -14.1057   12.3639 H   0  0  0  0  0  0  0  0  0  0  0  0
   -9.0375  -15.4464   13.1909 H   0  0  0  0  0  0  0  0  0  0  0  0
   -7.9723  -14.5093   14.1019 H   0  0  0  0  0  0  0  0  0  0  0  0
   -6.7322  -19.0107   15.5840 H   0  0  0  0  0  0  0  0  0  0  0  0
   -9.0042  -20.5757   15.5885 H   0  0  0  0  0  0  0  0  0  0  0  0
  -10.3769  -19.6536   13.6333 H   0  0  0  0  0  0  0  0  0  0  0  0
   -3.8624   -6.5360   10.0480 H   0  0  0  0  0  0  0  0  0  0  0  0
   -5.0584   -5.9314   11.3244 H   0  0  0  0  0  0  0  0  0  0  0  0
   -6.2053   -3.9723    7.7000 H   0  0  0  0  0  0  0  0  0  0  0  0
   -2.5221   -2.6078    7.3770 H   0  0  0  0  0  0  0  0  0  0  0  0
   -2.5375   -5.2579    7.7118 H   0  0  0  0  0  0  0  0  0  0  0  0
  1  2  1  0
  2  3  1  0
  3  4  1  0
  4  5  1  0
  4  6  1  0
  6  7  1  0
  7  8  1  0
  7  9  1  0
  9 10  2  0
  9 11  1  0
 11 12  1  0
 12 13  2  0
 13 14  1  0
 14 15  1  0
  2 16  1  0
 16 17  2  0
 16 18  1  0
 18 19  1  0
 19 20  2  0
 20 21  1  0
 21 22  2  0
 22 23  1  0
 15 11  2  0
 23 19  1  0
  1 24  1  0
  1 25  1  0
  1 26  1  0
  3 27  1  0
  3 28  1  0
  4 29  1  0
  5 30  1  0
  6 31  1  0
  6 32  1  0
  8 33  1  0
  8 34  1  0
  8 35  1  0
 12 36  1  0
 13 37  1  0
 14 38  1  0
 18 39  1  0
 18 40  1  0
 20 41  1  0
 22 42  1  0
 23 43  1  0
M  END
>  <Energy>  (886) 
915.45972421177737

>  <compound_id>  (886) 
10605

>  <target_id>  (886) 
1

>  <reference_id>  (886) 
99

>  <inspiration_ids>  (886) 
[35, 99]

>  <energy_score>  (886) 
782.9029524559248

>  <distance_score>  (886) 
16.67280693484464

>  <path>  (886) 
/opt/xchem-fragalysis-2/maxwin/BulkDock/SCRATCH/511023/C10605-P99/C10605-P99.minimised.mol

>  <scratch_subdir>  (886) 
/opt/xchem-fragalysis-2/maxwin/BulkDock/SCRATCH/511023/C10605-P99

>  <fragmenstein_runtime>  (886) 
30.334578037261963

>  <fragmenstein_outcome>  (886) 
too moved

>  <fragmenstein_mode>  (886) 
expansion

>  <fragmenstein_error>  (886) 


$$$$
C10606-P35
     RDKit          3D

 46 47  0  0  0  0  0  0  0  0999 V2000
   -9.3034  -14.0297   19.6040 C   0  0  0  0  0  0  0  0  0  0  0  0
   -9.4002  -12.7311   19.4302 N   0  0  0  0  0  0  0  0  0  0  0  0
   -9.7127  -12.7565   21.4517 C   0  0  0  0  0  0  0  0  0  0  0  0
  -10.6152  -11.5474   22.8756 C   0  0  0  0  0  0  0  0  0  0  0  0
   -9.7567  -10.5119   23.4536 O   0  0  0  0  0  0  0  0  0  0  0  0
  -11.9056  -11.3524   24.0879 C   0  0  0  0  0  0  0  0  0  0  0  0
  -12.2590  -12.2922   25.2545 N   0  0  0  0  0  0  0  0  0  0  0  0
  -13.4378  -11.3450   25.3791 C   0  0  0  0  0  0  0  0  0  0  0  0
  -11.6352  -12.4717   26.5400 C   0  0  0  0  0  0  0  0  0  0  0  0
  -10.7359  -11.8693   27.0618 O   0  0  0  0  0  0  0  0  0  0  0  0
  -12.2357  -13.7077   27.2002 C   0  0  0  0  0  0  0  0  0  0  0  0
  -13.1854  -14.6063   26.6150 C   0  0  0  0  0  0  0  0  0  0  0  0
  -13.4101  -15.5881   27.5385 C   0  0  0  0  0  0  0  0  0  0  0  0
  -12.6623  -15.2503   28.6221 N   0  0  0  0  0  0  0  0  0  0  0  0
  -11.8772  -14.1750   28.4190 N   0  0  0  0  0  0  0  0  0  0  0  0
   -8.2555  -12.2663   18.6340 C   0  0  0  0  0  0  0  0  0  0  0  0
   -7.1976  -11.8753   18.9961 O   0  0  0  0  0  0  0  0  0  0  0  0
   -8.2709  -12.3679   16.9354 C   0  0  0  0  0  0  0  0  0  0  0  0
   -9.0128  -12.2082   15.1216 C   0  0  0  0  0  0  0  0  0  0  0  0
   -9.2735  -13.3828   14.3063 C   0  0  0  0  0  0  0  0  0  0  0  0
   -9.4384  -13.2248   13.0107 N   0  0  0  0  0  0  0  0  0  0  0  0
   -8.9793  -12.0420   12.9034 C   0  0  0  0  0  0  0  0  0  0  0  0
   -8.8923  -11.2964   14.0416 N   0  0  0  0  0  0  0  0  0  0  0  0
   -8.7762   -9.8678   13.9095 C   0  0  0  0  0  0  0  0  0  0  0  0
  -10.1022  -14.6556   19.2172 H   0  0  0  0  0  0  0  0  0  0  0  0
   -8.5407  -14.3286   18.9249 H   0  0  0  0  0  0  0  0  0  0  0  0
   -8.5785  -14.3081   20.3070 H   0  0  0  0  0  0  0  0  0  0  0  0
   -8.8316  -12.6219   22.0580 H   0  0  0  0  0  0  0  0  0  0  0  0
  -10.6426  -13.3125   21.5584 H   0  0  0  0  0  0  0  0  0  0  0  0
  -11.4550  -11.2124   22.3005 H   0  0  0  0  0  0  0  0  0  0  0  0
   -8.8408  -10.5088   23.1343 H   0  0  0  0  0  0  0  0  0  0  0  0
  -11.6123  -10.3887   24.5428 H   0  0  0  0  0  0  0  0  0  0  0  0
  -12.7811  -11.1732   23.4352 H   0  0  0  0  0  0  0  0  0  0  0  0
  -13.1914  -10.3069   25.6504 H   0  0  0  0  0  0  0  0  0  0  0  0
  -13.9872  -11.6884   26.2696 H   0  0  0  0  0  0  0  0  0  0  0  0
  -14.1958  -11.4500   24.5898 H   0  0  0  0  0  0  0  0  0  0  0  0
  -13.6456  -14.5257   25.6403 H   0  0  0  0  0  0  0  0  0  0  0  0
  -14.0786  -16.4334   27.5322 H   0  0  0  0  0  0  0  0  0  0  0  0
  -12.6530  -15.7026   29.5322 H   0  0  0  0  0  0  0  0  0  0  0  0
   -7.7323  -13.3328   16.9070 H   0  0  0  0  0  0  0  0  0  0  0  0
   -7.6020  -11.4912   16.9201 H   0  0  0  0  0  0  0  0  0  0  0  0
   -9.2173  -14.4119   14.5755 H   0  0  0  0  0  0  0  0  0  0  0  0
   -8.6433  -11.8060   11.9518 H   0  0  0  0  0  0  0  0  0  0  0  0
   -7.7903   -9.5576   14.2170 H   0  0  0  0  0  0  0  0  0  0  0  0
   -8.9203   -9.6133   12.8630 H   0  0  0  0  0  0  0  0  0  0  0  0
   -9.5815   -9.3938   14.4531 H   0  0  0  0  0  0  0  0  0  0  0  0
  1  2  1  0
  2  3  1  0
  3  4  1  0
  4  5  1  0
  4  6  1  0
  6  7  1  0
  7  8  1  0
  7  9  1  0
  9 10  2  0
  9 11  1  0
 11 12  1  0
 12 13  2  0
 13 14  1  0
 14 15  1  0
  2 16  1  0
 16 17  2  0
 16 18  1  0
 18 19  1  0
 19 20  2  0
 20 21  1  0
 21 22  2  0
 22 23  1  0
 23 24  1  0
 15 11  2  0
 23 19  1  0
  1 25  1  0
  1 26  1  0
  1 27  1  0
  3 28  1  0
  3 29  1  0
  4 30  1  0
  5 31  1  0
  6 32  1  0
  6 33  1  0
  8 34  1  0
  8 35  1  0
  8 36  1  0
 12 37  1  0
 13 38  1  0
 14 39  1  0
 18 40  1  0
 18 41  1  0
 20 42  1  0
 22 43  1  0
 24 44  1  0
 24 45  1  0
 24 46  1  0
M  END
>  <Energy>  (887) 
677.55965823097756

>  <compound_id>  (887) 
10606

>  <target_id>  (887) 
1

>  <reference_id>  (887) 
35

>  <inspiration_ids>  (887) 
[35, 99]

>  <energy_score>  (887) 
545.6140693928646

>  <distance_score>  (887) 
12.144521868868475

>  <path>  (887) 
/opt/xchem-fragalysis-2/maxwin/BulkDock/SCRATCH/511023/C10606-P35/C10606-P35.minimised.mol

>  <scratch_subdir>  (887) 
/opt/xchem-fragalysis-2/maxwin/BulkDock/SCRATCH/511023/C10606-P35

>  <fragmenstein_runtime>  (887) 
31.526416063308716

>  <fragmenstein_outcome>  (887) 
too moved

>  <fragmenstein_mode>  (887) 
expansion

>  <fragmenstein_error>  (887) 


$$$$
C10606-P99
     RDKit          3D

 46 47  0  0  0  0  0  0  0  0999 V2000
   -9.1219  -21.8465   18.6582 C   0  0  0  0  0  0  0  0  0  0  0  0
  -10.6246  -21.9080   18.5996 N   0  0  0  0  0  0  0  0  0  0  0  0
  -10.3796  -23.2230   19.3380 C   0  0  0  0  0  0  0  0  0  0  0  0
  -10.3891  -23.1733   20.9152 C   0  0  0  0  0  0  0  0  0  0  0  0
   -9.6985  -24.3442   21.3868 O   0  0  0  0  0  0  0  0  0  0  0  0
  -11.8342  -23.1711   21.4983 C   0  0  0  0  0  0  0  0  0  0  0  0
  -11.6776  -23.1702   23.0032 N   0  0  0  0  0  0  0  0  0  0  0  0
  -13.1513  -22.8558   22.9390 C   0  0  0  0  0  0  0  0  0  0  0  0
  -11.0175  -22.2511   23.8696 C   0  0  0  0  0  0  0  0  0  0  0  0
  -10.4930  -21.1942   23.6346 O   0  0  0  0  0  0  0  0  0  0  0  0
  -10.9432  -22.7986   25.2466 C   0  0  0  0  0  0  0  0  0  0  0  0
  -10.1252  -22.2933   26.2911 C   0  0  0  0  0  0  0  0  0  0  0  0
  -10.4764  -23.0079   27.4010 C   0  0  0  0  0  0  0  0  0  0  0  0
  -11.3737  -23.9289   26.9803 N   0  0  0  0  0  0  0  0  0  0  0  0
  -11.6790  -23.8450   25.6810 N   0  0  0  0  0  0  0  0  0  0  0  0
  -11.1844  -20.6783   19.0511 C   0  0  0  0  0  0  0  0  0  0  0  0
  -11.5241  -20.3334   20.1527 O   0  0  0  0  0  0  0  0  0  0  0  0
  -11.3756  -19.6837   17.8429 C   0  0  0  0  0  0  0  0  0  0  0  0
  -12.1018  -18.4501   18.3658 C   0  0  0  0  0  0  0  0  0  0  0  0
  -13.4917  -18.4962   18.4988 C   0  0  0  0  0  0  0  0  0  0  0  0
  -14.0184  -17.4286   19.1636 N   0  0  0  0  0  0  0  0  0  0  0  0
  -12.9911  -16.7602   19.5952 C   0  0  0  0  0  0  0  0  0  0  0  0
  -11.7285  -17.2074   18.9487 N   0  0  0  0  0  0  0  0  0  0  0  0
  -10.2789  -16.1174   19.3361 C   0  0  0  0  0  0  0  0  0  0  0  0
   -8.6797  -21.7514   19.6580 H   0  0  0  0  0  0  0  0  0  0  0  0
   -8.8483  -20.8945   18.1813 H   0  0  0  0  0  0  0  0  0  0  0  0
   -8.6235  -22.5825   18.0095 H   0  0  0  0  0  0  0  0  0  0  0  0
   -9.6268  -23.9183   18.9262 H   0  0  0  0  0  0  0  0  0  0  0  0
  -11.2997  -23.7707   19.0772 H   0  0  0  0  0  0  0  0  0  0  0  0
   -9.8316  -22.3087   21.2861 H   0  0  0  0  0  0  0  0  0  0  0  0
   -9.9093  -24.4011   22.3418 H   0  0  0  0  0  0  0  0  0  0  0  0
  -12.3036  -24.1162   21.1827 H   0  0  0  0  0  0  0  0  0  0  0  0
  -12.3237  -22.2964   21.0573 H   0  0  0  0  0  0  0  0  0  0  0  0
  -13.5064  -22.8705   23.9799 H   0  0  0  0  0  0  0  0  0  0  0  0
  -13.7794  -23.6168   22.4512 H   0  0  0  0  0  0  0  0  0  0  0  0
  -13.3684  -21.8214   22.6274 H   0  0  0  0  0  0  0  0  0  0  0  0
   -9.4319  -21.4674   26.2294 H   0  0  0  0  0  0  0  0  0  0  0  0
  -10.2086  -22.9507   28.4364 H   0  0  0  0  0  0  0  0  0  0  0  0
  -11.8256  -24.6364   27.5524 H   0  0  0  0  0  0  0  0  0  0  0  0
  -10.4439  -19.4619   17.3175 H   0  0  0  0  0  0  0  0  0  0  0  0
  -12.0200  -20.1910   17.1121 H   0  0  0  0  0  0  0  0  0  0  0  0
  -14.1420  -19.2893   18.1486 H   0  0  0  0  0  0  0  0  0  0  0  0
  -13.0033  -15.9083   20.2540 H   0  0  0  0  0  0  0  0  0  0  0  0
   -9.6421  -16.4129   20.0959 H   0  0  0  0  0  0  0  0  0  0  0  0
  -10.4589  -15.0607   19.2268 H   0  0  0  0  0  0  0  0  0  0  0  0
   -9.6629  -15.9737   18.3410 H   0  0  0  0  0  0  0  0  0  0  0  0
  1  2  1  0
  2  3  1  0
  3  4  1  0
  4  5  1  0
  4  6  1  0
  6  7  1  0
  7  8  1  0
  7  9  1  0
  9 10  2  0
  9 11  1  0
 11 12  1  0
 12 13  2  0
 13 14  1  0
 14 15  1  0
  2 16  1  0
 16 17  2  0
 16 18  1  0
 18 19  1  0
 19 20  2  0
 20 21  1  0
 21 22  2  0
 22 23  1  0
 23 24  1  0
 15 11  2  0
 23 19  1  0
  1 25  1  0
  1 26  1  0
  1 27  1  0
  3 28  1  0
  3 29  1  0
  4 30  1  0
  5 31  1  0
  6 32  1  0
  6 33  1  0
  8 34  1  0
  8 35  1  0
  8 36  1  0
 12 37  1  0
 13 38  1  0
 14 39  1  0
 18 40  1  0
 18 41  1  0
 20 42  1  0
 22 43  1  0
 24 44  1  0
 24 45  1  0
 24 46  1  0
M  END
>  <Energy>  (888) 
323.03431756940648

>  <compound_id>  (888) 
10606

>  <target_id>  (888) 
1

>  <reference_id>  (888) 
99

>  <inspiration_ids>  (888) 
[35, 99]

>  <energy_score>  (888) 
191.08872873130474

>  <distance_score>  (888) 
15.522825427676159

>  <path>  (888) 
/opt/xchem-fragalysis-2/maxwin/BulkDock/SCRATCH/511023/C10606-P99/C10606-P99.minimised.mol

>  <scratch_subdir>  (888) 
/opt/xchem-fragalysis-2/maxwin/BulkDock/SCRATCH/511023/C10606-P99

>  <fragmenstein_runtime>  (888) 
43.60660672187805

>  <fragmenstein_outcome>  (888) 
too moved

>  <fragmenstein_mode>  (888) 
expansion

>  <fragmenstein_error>  (888) 


$$$$
C10608-P35
     RDKit          3D

 42 43  0  0  0  0  0  0  0  0999 V2000
   -6.4129  -13.2235   10.8328 C   0  0  0  0  0  0  0  0  0  0  0  0
   -7.2791  -13.9724   11.7702 C   0  0  0  0  0  0  0  0  0  0  0  0
   -7.1653  -15.2421   12.1178 N   0  0  0  0  0  0  0  0  0  0  0  0
   -8.1713  -15.5118   13.0431 C   0  0  0  0  0  0  0  0  0  0  0  0
   -8.3974  -16.9228   13.6335 C   0  0  0  0  0  0  0  0  0  0  0  0
   -8.0126  -17.1511   15.1423 C   0  0  0  0  0  0  0  0  0  0  0  0
   -7.1383  -16.4724   15.6127 O   0  0  0  0  0  0  0  0  0  0  0  0
   -8.8269  -18.1965   15.7515 N   0  0  0  0  0  0  0  0  0  0  0  0
  -10.0782  -17.6065   16.3296 C   0  0  0  0  0  0  0  0  0  0  0  0
   -8.7498  -18.8476   17.1647 C   0  0  0  0  0  0  0  0  0  0  0  0
   -9.4129  -20.2619   17.4046 C   0  0  0  0  0  0  0  0  0  0  0  0
   -9.5476  -20.5503   18.9352 N   0  0  0  0  0  0  0  0  0  0  0  0
  -10.1316  -21.8394   18.4207 C   0  0  0  0  0  0  0  0  0  0  0  0
  -10.4205  -19.9720   19.9289 C   0  0  0  0  0  0  0  0  0  0  0  0
  -11.3243  -19.1870   19.8101 O   0  0  0  0  0  0  0  0  0  0  0  0
  -10.1714  -20.5570   21.3217 C   0  0  0  0  0  0  0  0  0  0  0  0
   -9.0707  -21.3299   21.8067 C   0  0  0  0  0  0  0  0  0  0  0  0
   -9.3614  -21.6503   23.1152 C   0  0  0  0  0  0  0  0  0  0  0  0
  -10.5719  -21.0849   23.3719 N   0  0  0  0  0  0  0  0  0  0  0  0
  -11.0733  -20.4112   22.3232 N   0  0  0  0  0  0  0  0  0  0  0  0
   -8.9326  -14.3666   13.1833 C   0  0  0  0  0  0  0  0  0  0  0  0
   -8.3518  -13.4005   12.3999 N   0  0  0  0  0  0  0  0  0  0  0  0
   -6.1551  -12.2399   11.2380 H   0  0  0  0  0  0  0  0  0  0  0  0
   -6.9209  -13.0832    9.8741 H   0  0  0  0  0  0  0  0  0  0  0  0
   -5.4825  -13.7696   10.6508 H   0  0  0  0  0  0  0  0  0  0  0  0
   -7.8003  -17.6346   13.0503 H   0  0  0  0  0  0  0  0  0  0  0  0
   -9.4511  -17.1828   13.4830 H   0  0  0  0  0  0  0  0  0  0  0  0
   -9.9089  -16.8737   17.1282 H   0  0  0  0  0  0  0  0  0  0  0  0
  -10.8720  -18.3228   16.5672 H   0  0  0  0  0  0  0  0  0  0  0  0
  -10.5221  -17.0108   15.5195 H   0  0  0  0  0  0  0  0  0  0  0  0
   -7.6683  -19.0575   17.2259 H   0  0  0  0  0  0  0  0  0  0  0  0
   -8.8409  -18.1644   18.0275 H   0  0  0  0  0  0  0  0  0  0  0  0
   -8.7327  -20.9673   16.9022 H   0  0  0  0  0  0  0  0  0  0  0  0
  -10.3947  -20.2311   16.9144 H   0  0  0  0  0  0  0  0  0  0  0  0
   -9.4281  -22.4802   17.8706 H   0  0  0  0  0  0  0  0  0  0  0  0
  -10.3589  -22.4401   19.3136 H   0  0  0  0  0  0  0  0  0  0  0  0
  -11.1180  -21.7315   17.9447 H   0  0  0  0  0  0  0  0  0  0  0  0
   -8.1872  -21.6149   21.2533 H   0  0  0  0  0  0  0  0  0  0  0  0
   -8.8275  -22.2183   23.8634 H   0  0  0  0  0  0  0  0  0  0  0  0
  -11.1198  -21.1152   24.2286 H   0  0  0  0  0  0  0  0  0  0  0  0
   -9.8143  -14.1705   13.7725 H   0  0  0  0  0  0  0  0  0  0  0  0
   -8.6599  -12.4431   12.3013 H   0  0  0  0  0  0  0  0  0  0  0  0
  1  2  1  0
  2  3  2  0
  3  4  1  0
  4  5  1  0
  5  6  1  0
  6  7  2  0
  6  8  1  0
  8  9  1  0
  8 10  1  0
 10 11  1  0
 11 12  1  0
 12 13  1  0
 12 14  1  0
 14 15  2  0
 14 16  1  0
 16 17  1  0
 17 18  2  0
 18 19  1  0
 19 20  1  0
  4 21  2  0
 21 22  1  0
 22  2  1  0
 20 16  2  0
  1 23  1  0
  1 24  1  0
  1 25  1  0
  5 26  1  0
  5 27  1  0
  9 28  1  0
  9 29  1  0
  9 30  1  0
 10 31  1  0
 10 32  1  0
 11 33  1  0
 11 34  1  0
 13 35  1  0
 13 36  1  0
 13 37  1  0
 17 38  1  0
 18 39  1  0
 19 40  1  0
 21 41  1  0
 22 42  1  0
M  END
>  <Energy>  (889) 
214.45427747441306

>  <compound_id>  (889) 
10608

>  <target_id>  (889) 
1

>  <reference_id>  (889) 
35

>  <inspiration_ids>  (889) 
[35, 99]

>  <energy_score>  (889) 
115.31468257232677

>  <distance_score>  (889) 
13.755944221264565

>  <path>  (889) 
/opt/xchem-fragalysis-2/maxwin/BulkDock/SCRATCH/511023/C10608-P35/C10608-P35.minimised.mol

>  <scratch_subdir>  (889) 
/opt/xchem-fragalysis-2/maxwin/BulkDock/SCRATCH/511023/C10608-P35

>  <fragmenstein_runtime>  (889) 
30.888319492340088

>  <fragmenstein_outcome>  (889) 
too moved

>  <fragmenstein_mode>  (889) 
expansion

>  <fragmenstein_error>  (889) 


$$$$
C10608-P99
     RDKit          3D

 42 43  0  0  0  0  0  0  0  0999 V2000
  -16.8672   -5.5450   16.5489 C   0  0  0  0  0  0  0  0  0  0  0  0
  -16.7376   -6.8158   17.2947 C   0  0  0  0  0  0  0  0  0  0  0  0
  -16.2478   -6.9770   18.5042 N   0  0  0  0  0  0  0  0  0  0  0  0
  -16.3192   -8.3468   18.8123 C   0  0  0  0  0  0  0  0  0  0  0  0
  -15.7909   -8.8685   20.1408 C   0  0  0  0  0  0  0  0  0  0  0  0
  -14.9255  -10.0566   20.3403 C   0  0  0  0  0  0  0  0  0  0  0  0
  -15.0549  -10.9226   19.5021 O   0  0  0  0  0  0  0  0  0  0  0  0
  -14.0249  -10.0351   21.7317 N   0  0  0  0  0  0  0  0  0  0  0  0
  -12.2372   -9.3833   21.6832 C   0  0  0  0  0  0  0  0  0  0  0  0
  -13.0245  -11.4207   22.5225 C   0  0  0  0  0  0  0  0  0  0  0  0
  -12.0348  -12.1258   24.0225 C   0  0  0  0  0  0  0  0  0  0  0  0
  -12.7403  -13.0792   25.0257 N   0  0  0  0  0  0  0  0  0  0  0  0
  -11.8031  -12.4166   25.9884 C   0  0  0  0  0  0  0  0  0  0  0  0
  -12.6642  -14.5116   25.1695 C   0  0  0  0  0  0  0  0  0  0  0  0
  -11.9683  -15.3156   24.6087 O   0  0  0  0  0  0  0  0  0  0  0  0
  -13.5169  -15.0407   26.2515 C   0  0  0  0  0  0  0  0  0  0  0  0
  -14.7940  -14.6250   26.6974 C   0  0  0  0  0  0  0  0  0  0  0  0
  -15.1821  -15.5712   27.6144 C   0  0  0  0  0  0  0  0  0  0  0  0
  -14.1531  -16.4572   27.6863 N   0  0  0  0  0  0  0  0  0  0  0  0
  -13.0901  -16.1052   26.9604 N   0  0  0  0  0  0  0  0  0  0  0  0
  -16.9642   -8.9761   17.7667 C   0  0  0  0  0  0  0  0  0  0  0  0
  -17.1534   -8.0228   16.7972 N   0  0  0  0  0  0  0  0  0  0  0  0
  -17.8574   -5.1093   16.7130 H   0  0  0  0  0  0  0  0  0  0  0  0
  -16.1156   -4.8254   16.8877 H   0  0  0  0  0  0  0  0  0  0  0  0
  -16.7301   -5.6977   15.4739 H   0  0  0  0  0  0  0  0  0  0  0  0
  -16.5800   -8.8503   20.8956 H   0  0  0  0  0  0  0  0  0  0  0  0
  -14.9723   -8.2882   20.3886 H   0  0  0  0  0  0  0  0  0  0  0  0
  -11.7288  -10.0421   22.3322 H   0  0  0  0  0  0  0  0  0  0  0  0
  -11.8484   -8.4866   22.2822 H   0  0  0  0  0  0  0  0  0  0  0  0
  -11.7892   -9.0970   20.7351 H   0  0  0  0  0  0  0  0  0  0  0  0
  -13.9913  -11.8726   22.7018 H   0  0  0  0  0  0  0  0  0  0  0  0
  -12.1532  -11.5635   21.9906 H   0  0  0  0  0  0  0  0  0  0  0  0
  -11.1884  -11.4313   24.2584 H   0  0  0  0  0  0  0  0  0  0  0  0
  -11.4367  -12.8976   23.5967 H   0  0  0  0  0  0  0  0  0  0  0  0
  -10.7470  -12.6761   25.8416 H   0  0  0  0  0  0  0  0  0  0  0  0
  -12.0269  -12.8562   26.9720 H   0  0  0  0  0  0  0  0  0  0  0  0
  -11.9951  -11.3480   26.1570 H   0  0  0  0  0  0  0  0  0  0  0  0
  -15.3750  -13.7886   26.3368 H   0  0  0  0  0  0  0  0  0  0  0  0
  -16.0873  -15.7104   28.1846 H   0  0  0  0  0  0  0  0  0  0  0  0
  -14.0913  -17.3040   28.2477 H   0  0  0  0  0  0  0  0  0  0  0  0
  -17.2173  -10.0144   17.6071 H   0  0  0  0  0  0  0  0  0  0  0  0
  -17.5698   -8.1858   15.8930 H   0  0  0  0  0  0  0  0  0  0  0  0
  1  2  1  0
  2  3  2  0
  3  4  1  0
  4  5  1  0
  5  6  1  0
  6  7  2  0
  6  8  1  0
  8  9  1  0
  8 10  1  0
 10 11  1  0
 11 12  1  0
 12 13  1  0
 12 14  1  0
 14 15  2  0
 14 16  1  0
 16 17  1  0
 17 18  2  0
 18 19  1  0
 19 20  1  0
  4 21  2  0
 21 22  1  0
 22  2  1  0
 20 16  2  0
  1 23  1  0
  1 24  1  0
  1 25  1  0
  5 26  1  0
  5 27  1  0
  9 28  1  0
  9 29  1  0
  9 30  1  0
 10 31  1  0
 10 32  1  0
 11 33  1  0
 11 34  1  0
 13 35  1  0
 13 36  1  0
 13 37  1  0
 17 38  1  0
 18 39  1  0
 19 40  1  0
 21 41  1  0
 22 42  1  0
M  END
>  <Energy>  (890) 
466.79226784287334

>  <compound_id>  (890) 
10608

>  <target_id>  (890) 
1

>  <reference_id>  (890) 
99

>  <inspiration_ids>  (890) 
[35, 99]

>  <energy_score>  (890) 
367.6526729407773

>  <distance_score>  (890) 
13.98152236610608

>  <path>  (890) 
/opt/xchem-fragalysis-2/maxwin/BulkDock/SCRATCH/511023/C10608-P99/C10608-P99.minimised.mol

>  <scratch_subdir>  (890) 
/opt/xchem-fragalysis-2/maxwin/BulkDock/SCRATCH/511023/C10608-P99

>  <fragmenstein_runtime>  (890) 
46.23133563995361

>  <fragmenstein_outcome>  (890) 
too moved

>  <fragmenstein_mode>  (890) 
expansion

>  <fragmenstein_error>  (890) 


$$$$
C10609-P35
     RDKit          3D

 42 43  0  0  0  0  0  0  0  0999 V2000
   -8.1528   -4.8520   14.2887 C   0  0  0  0  0  0  0  0  0  0  0  0
   -8.6789   -5.6704   15.8812 C   0  0  0  0  0  0  0  0  0  0  0  0
   -9.7476   -5.0264   15.5423 N   0  0  0  0  0  0  0  0  0  0  0  0
  -10.1638   -6.0824   14.6219 C   0  0  0  0  0  0  0  0  0  0  0  0
  -11.0534   -6.4557   15.5255 N   0  0  0  0  0  0  0  0  0  0  0  0
  -10.1075   -6.2096   16.9254 C   0  0  0  0  0  0  0  0  0  0  0  0
   -9.4567   -7.1672   18.7026 C   0  0  0  0  0  0  0  0  0  0  0  0
   -8.3378   -8.8787   18.4091 C   0  0  0  0  0  0  0  0  0  0  0  0
   -7.4098   -8.6419   17.6001 O   0  0  0  0  0  0  0  0  0  0  0  0
   -8.8848  -10.5047   19.1573 N   0  0  0  0  0  0  0  0  0  0  0  0
  -10.2051  -11.5951   18.3621 C   0  0  0  0  0  0  0  0  0  0  0  0
   -8.0630  -12.2846   18.9810 C   0  0  0  0  0  0  0  0  0  0  0  0
   -8.7876  -14.0817   19.4654 C   0  0  0  0  0  0  0  0  0  0  0  0
   -8.4562  -15.9429   20.0298 N   0  0  0  0  0  0  0  0  0  0  0  0
   -9.3662  -16.2358   18.9149 C   0  0  0  0  0  0  0  0  0  0  0  0
   -8.9235  -16.7219   21.3186 C   0  0  0  0  0  0  0  0  0  0  0  0
   -9.6776  -16.3832   22.2211 O   0  0  0  0  0  0  0  0  0  0  0  0
   -8.3374  -18.0854   21.5689 C   0  0  0  0  0  0  0  0  0  0  0  0
   -8.6636  -18.8625   22.7468 C   0  0  0  0  0  0  0  0  0  0  0  0
   -7.9394  -20.0212   22.6623 C   0  0  0  0  0  0  0  0  0  0  0  0
   -7.2367  -19.9095   21.5033 N   0  0  0  0  0  0  0  0  0  0  0  0
   -7.4576  -18.7668   20.8163 N   0  0  0  0  0  0  0  0  0  0  0  0
   -8.7360   -3.9413   14.0214 H   0  0  0  0  0  0  0  0  0  0  0  0
   -8.2470   -5.4150   13.3908 H   0  0  0  0  0  0  0  0  0  0  0  0
   -7.1380   -4.4412   14.3257 H   0  0  0  0  0  0  0  0  0  0  0  0
   -9.8267   -4.0213   15.3888 H   0  0  0  0  0  0  0  0  0  0  0  0
  -10.3338   -5.8590   13.5818 H   0  0  0  0  0  0  0  0  0  0  0  0
   -8.7647   -6.4957   19.2174 H   0  0  0  0  0  0  0  0  0  0  0  0
  -10.2743   -7.4531   19.3082 H   0  0  0  0  0  0  0  0  0  0  0  0
  -10.2902  -12.5100   18.8384 H   0  0  0  0  0  0  0  0  0  0  0  0
  -11.1050  -11.0119   18.3645 H   0  0  0  0  0  0  0  0  0  0  0  0
  -10.1001  -12.0999   17.4262 H   0  0  0  0  0  0  0  0  0  0  0  0
   -7.9140  -12.3776   17.9006 H   0  0  0  0  0  0  0  0  0  0  0  0
   -7.0341  -12.2619   19.3307 H   0  0  0  0  0  0  0  0  0  0  0  0
   -9.8259  -14.0263   19.2136 H   0  0  0  0  0  0  0  0  0  0  0  0
   -8.2450  -14.2688   18.5464 H   0  0  0  0  0  0  0  0  0  0  0  0
   -8.8260  -16.2306   17.9699 H   0  0  0  0  0  0  0  0  0  0  0  0
  -10.3919  -15.8702   18.9340 H   0  0  0  0  0  0  0  0  0  0  0  0
   -9.5594  -17.3174   19.0088 H   0  0  0  0  0  0  0  0  0  0  0  0
   -9.3429  -18.5720   23.5364 H   0  0  0  0  0  0  0  0  0  0  0  0
   -7.8596  -20.8858   23.3050 H   0  0  0  0  0  0  0  0  0  0  0  0
   -6.5842  -20.5774   21.1076 H   0  0  0  0  0  0  0  0  0  0  0  0
  1  2  1  0
  2  3  1  0
  3  4  1  0
  4  5  2  0
  5  6  1  0
  6  7  1  0
  7  8  1  0
  8  9  2  0
  8 10  1  0
 10 11  1  0
 10 12  1  0
 12 13  1  0
 13 14  1  0
 14 15  1  0
 14 16  1  0
 16 17  2  0
 16 18  1  0
 18 19  1  0
 19 20  2  0
 20 21  1  0
 21 22  1  0
  6  2  2  0
 22 18  2  0
  1 23  1  0
  1 24  1  0
  1 25  1  0
  3 26  1  0
  4 27  1  0
  7 28  1  0
  7 29  1  0
 11 30  1  0
 11 31  1  0
 11 32  1  0
 12 33  1  0
 12 34  1  0
 13 35  1  0
 13 36  1  0
 15 37  1  0
 15 38  1  0
 15 39  1  0
 19 40  1  0
 20 41  1  0
 21 42  1  0
M  END
>  <Energy>  (891) 
1051.4135810126386

>  <compound_id>  (891) 
10609

>  <target_id>  (891) 
1

>  <reference_id>  (891) 
35

>  <inspiration_ids>  (891) 
[35, 99]

>  <energy_score>  (891) 
935.0354626542739

>  <distance_score>  (891) 
13.020940640175478

>  <path>  (891) 
/opt/xchem-fragalysis-2/maxwin/BulkDock/SCRATCH/511023/C10609-P35/C10609-P35.minimised.mol

>  <scratch_subdir>  (891) 
/opt/xchem-fragalysis-2/maxwin/BulkDock/SCRATCH/511023/C10609-P35

>  <fragmenstein_runtime>  (891) 
34.52777457237244

>  <fragmenstein_outcome>  (891) 
too moved

>  <fragmenstein_mode>  (891) 
expansion

>  <fragmenstein_error>  (891) 


$$$$
C10609-P99
     RDKit          3D

 42 43  0  0  0  0  0  0  0  0999 V2000
  -16.5085   -5.5335   18.9558 C   0  0  0  0  0  0  0  0  0  0  0  0
  -16.4972   -6.8886   18.3559 C   0  0  0  0  0  0  0  0  0  0  0  0
  -16.8453   -7.0222   17.0308 N   0  0  0  0  0  0  0  0  0  0  0  0
  -17.0867   -8.3369   16.8029 C   0  0  0  0  0  0  0  0  0  0  0  0
  -16.8232   -9.0541   17.8696 N   0  0  0  0  0  0  0  0  0  0  0  0
  -16.2844   -8.1991   18.8286 C   0  0  0  0  0  0  0  0  0  0  0  0
  -15.8884   -8.7734   20.2489 C   0  0  0  0  0  0  0  0  0  0  0  0
  -14.7766   -9.9281   20.5228 C   0  0  0  0  0  0  0  0  0  0  0  0
  -14.9314  -10.8475   19.7286 O   0  0  0  0  0  0  0  0  0  0  0  0
  -13.6618   -9.8633   21.8585 N   0  0  0  0  0  0  0  0  0  0  0  0
  -11.9457   -9.1929   21.7153 C   0  0  0  0  0  0  0  0  0  0  0  0
  -12.4612  -11.2453   22.5773 C   0  0  0  0  0  0  0  0  0  0  0  0
  -12.2130  -12.2808   24.1942 C   0  0  0  0  0  0  0  0  0  0  0  0
  -12.8098  -13.4560   24.9051 N   0  0  0  0  0  0  0  0  0  0  0  0
  -13.7135  -12.4005   25.4467 C   0  0  0  0  0  0  0  0  0  0  0  0
  -12.2993  -14.2552   25.9690 C   0  0  0  0  0  0  0  0  0  0  0  0
  -11.3001  -14.1339   26.6258 O   0  0  0  0  0  0  0  0  0  0  0  0
  -13.2339  -15.3568   26.2766 C   0  0  0  0  0  0  0  0  0  0  0  0
  -14.2908  -15.8852   25.4852 C   0  0  0  0  0  0  0  0  0  0  0  0
  -14.9113  -16.8176   26.2737 C   0  0  0  0  0  0  0  0  0  0  0  0
  -14.2116  -16.8250   27.4378 N   0  0  0  0  0  0  0  0  0  0  0  0
  -13.1781  -15.9770   27.4649 N   0  0  0  0  0  0  0  0  0  0  0  0
  -15.5570   -5.0222   18.7844 H   0  0  0  0  0  0  0  0  0  0  0  0
  -17.2946   -4.9169   18.5046 H   0  0  0  0  0  0  0  0  0  0  0  0
  -16.7231   -5.5741   20.0255 H   0  0  0  0  0  0  0  0  0  0  0  0
  -17.0510   -6.2683   16.3923 H   0  0  0  0  0  0  0  0  0  0  0  0
  -17.4616   -8.7226   15.8656 H   0  0  0  0  0  0  0  0  0  0  0  0
  -16.7440   -9.4865   20.3264 H   0  0  0  0  0  0  0  0  0  0  0  0
  -16.3230   -8.1621   21.0230 H   0  0  0  0  0  0  0  0  0  0  0  0
  -11.1657   -9.1835   22.5337 H   0  0  0  0  0  0  0  0  0  0  0  0
  -11.9649   -8.2415   22.3563 H   0  0  0  0  0  0  0  0  0  0  0  0
  -11.6508   -8.9221   20.7215 H   0  0  0  0  0  0  0  0  0  0  0  0
  -11.7048  -11.6338   21.9859 H   0  0  0  0  0  0  0  0  0  0  0  0
  -11.6147  -10.7121   23.0358 H   0  0  0  0  0  0  0  0  0  0  0  0
  -11.4048  -12.8605   23.7931 H   0  0  0  0  0  0  0  0  0  0  0  0
  -11.5246  -11.7444   24.9000 H   0  0  0  0  0  0  0  0  0  0  0  0
  -14.4151  -12.9191   26.1185 H   0  0  0  0  0  0  0  0  0  0  0  0
  -14.3943  -11.9785   24.6977 H   0  0  0  0  0  0  0  0  0  0  0  0
  -13.2295  -11.6888   26.1333 H   0  0  0  0  0  0  0  0  0  0  0  0
  -14.5676  -15.5984   24.4811 H   0  0  0  0  0  0  0  0  0  0  0  0
  -15.7470  -17.4814   26.1121 H   0  0  0  0  0  0  0  0  0  0  0  0
  -14.3420  -17.4305   28.2442 H   0  0  0  0  0  0  0  0  0  0  0  0
  1  2  1  0
  2  3  1  0
  3  4  1  0
  4  5  2  0
  5  6  1  0
  6  7  1  0
  7  8  1  0
  8  9  2  0
  8 10  1  0
 10 11  1  0
 10 12  1  0
 12 13  1  0
 13 14  1  0
 14 15  1  0
 14 16  1  0
 16 17  2  0
 16 18  1  0
 18 19  1  0
 19 20  2  0
 20 21  1  0
 21 22  1  0
  6  2  2  0
 22 18  2  0
  1 23  1  0
  1 24  1  0
  1 25  1  0
  3 26  1  0
  4 27  1  0
  7 28  1  0
  7 29  1  0
 11 30  1  0
 11 31  1  0
 11 32  1  0
 12 33  1  0
 12 34  1  0
 13 35  1  0
 13 36  1  0
 15 37  1  0
 15 38  1  0
 15 39  1  0
 19 40  1  0
 20 41  1  0
 21 42  1  0
M  END
>  <Energy>  (892) 
535.97250506818523

>  <compound_id>  (892) 
10609

>  <target_id>  (892) 
1

>  <reference_id>  (892) 
99

>  <inspiration_ids>  (892) 
[35, 99]

>  <energy_score>  (892) 
419.59438670982775

>  <distance_score>  (892) 
13.857113266478633

>  <path>  (892) 
/opt/xchem-fragalysis-2/maxwin/BulkDock/SCRATCH/511023/C10609-P99/C10609-P99.minimised.mol

>  <scratch_subdir>  (892) 
/opt/xchem-fragalysis-2/maxwin/BulkDock/SCRATCH/511023/C10609-P99

>  <fragmenstein_runtime>  (892) 
33.36263704299927

>  <fragmenstein_outcome>  (892) 
too moved

>  <fragmenstein_mode>  (892) 
expansion

>  <fragmenstein_error>  (892) 


$$$$
C10613-P35
     RDKit          3D

 31 34  0  0  0  0  0  0  0  0999 V2000
   -6.5509  -17.4933   21.7955 C   0  0  0  0  0  0  0  0  0  0  0  0
   -6.9456  -17.1571   20.5285 C   0  0  0  0  0  0  0  0  0  0  0  0
   -8.1042  -16.2738   20.5840 N   0  0  0  0  0  0  0  0  0  0  0  0
   -8.6823  -15.3993   19.0892 C   0  0  0  0  0  0  0  0  0  0  0  0
   -8.5245  -13.7770   19.1044 C   0  0  0  0  0  0  0  0  0  0  0  0
   -7.9444  -13.1012   17.8737 C   0  0  0  0  0  0  0  0  0  0  0  0
   -7.3745  -13.9884   16.5037 C   0  0  0  0  0  0  0  0  0  0  0  0
   -7.1839  -15.5219   16.4251 C   0  0  0  0  0  0  0  0  0  0  0  0
   -8.0493  -16.1645   17.6315 C   0  0  0  0  0  0  0  0  0  0  0  0
   -7.4500  -15.8542   14.8552 C   0  0  0  0  0  0  0  0  0  0  0  0
   -7.6836  -14.6404   14.2248 O   0  0  0  0  0  0  0  0  0  0  0  0
   -8.6020  -13.9472   14.8933 C   0  0  0  0  0  0  0  0  0  0  0  0
   -8.5220  -16.6809   22.0021 C   0  0  0  0  0  0  0  0  0  0  0  0
   -9.9028  -17.1891   22.7604 C   0  0  0  0  0  0  0  0  0  0  0  0
  -11.2129  -17.3608   22.2622 C   0  0  0  0  0  0  0  0  0  0  0  0
  -11.8873  -18.0800   23.2289 C   0  0  0  0  0  0  0  0  0  0  0  0
  -10.9779  -18.3291   24.2099 N   0  0  0  0  0  0  0  0  0  0  0  0
   -9.8194  -17.6888   24.0185 N   0  0  0  0  0  0  0  0  0  0  0  0
   -7.4331  -17.0345   22.7004 N   0  0  0  0  0  0  0  0  0  0  0  0
   -5.6644  -18.0392   22.0890 H   0  0  0  0  0  0  0  0  0  0  0  0
   -6.4999  -17.3957   19.5775 H   0  0  0  0  0  0  0  0  0  0  0  0
   -8.5747  -13.3377   20.0426 H   0  0  0  0  0  0  0  0  0  0  0  0
   -7.5420  -12.1005   18.0169 H   0  0  0  0  0  0  0  0  0  0  0  0
   -8.1235  -17.2401   17.5043 H   0  0  0  0  0  0  0  0  0  0  0  0
   -6.5720  -16.2843   14.3176 H   0  0  0  0  0  0  0  0  0  0  0  0
   -8.1201  -16.6227   14.5026 H   0  0  0  0  0  0  0  0  0  0  0  0
   -8.9001  -12.9225   14.5341 H   0  0  0  0  0  0  0  0  0  0  0  0
   -9.4926  -14.5077   14.6731 H   0  0  0  0  0  0  0  0  0  0  0  0
  -11.5905  -17.0839   21.2889 H   0  0  0  0  0  0  0  0  0  0  0  0
  -12.8854  -18.4940   23.2617 H   0  0  0  0  0  0  0  0  0  0  0  0
  -11.0696  -18.9342   25.0202 H   0  0  0  0  0  0  0  0  0  0  0  0
  1  2  2  0
  2  3  1  0
  3  4  1  0
  4  5  2  0
  5  6  1  0
  6  7  2  0
  7  8  1  0
  8  9  2  0
  8 10  1  0
 10 11  1  0
 11 12  1  0
  3 13  1  0
 13 14  1  0
 14 15  1  0
 15 16  2  0
 16 17  1  0
 17 18  1  0
 13 19  2  0
 19  1  1  0
  9  4  1  0
 18 14  2  0
 12  7  1  0
  1 20  1  0
  2 21  1  0
  5 22  1  0
  6 23  1  0
  9 24  1  0
 10 25  1  0
 10 26  1  0
 12 27  1  0
 12 28  1  0
 15 29  1  0
 16 30  1  0
 17 31  1  0
M  END
>  <Energy>  (893) 
440.17441939394882

>  <compound_id>  (893) 
10613

>  <target_id>  (893) 
1

>  <reference_id>  (893) 
35

>  <inspiration_ids>  (893) 
[35, 99]

>  <energy_score>  (893) 
328.8440873980462

>  <distance_score>  (893) 
14.013063184351942

>  <path>  (893) 
/opt/xchem-fragalysis-2/maxwin/BulkDock/SCRATCH/511023/C10613-P35/C10613-P35.minimised.mol

>  <scratch_subdir>  (893) 
/opt/xchem-fragalysis-2/maxwin/BulkDock/SCRATCH/511023/C10613-P35

>  <fragmenstein_runtime>  (893) 
19.03672456741333

>  <fragmenstein_outcome>  (893) 
too moved

>  <fragmenstein_mode>  (893) 
expansion

>  <fragmenstein_error>  (893) 


$$$$
C10613-P99
     RDKit          3D

 31 34  0  0  0  0  0  0  0  0999 V2000
   -6.6665  -19.8481   26.6870 C   0  0  0  0  0  0  0  0  0  0  0  0
   -7.2734  -18.7700   26.1095 C   0  0  0  0  0  0  0  0  0  0  0  0
   -8.5041  -19.1740   25.5929 N   0  0  0  0  0  0  0  0  0  0  0  0
   -9.3912  -18.2276   24.9039 C   0  0  0  0  0  0  0  0  0  0  0  0
  -10.5076  -18.6347   24.1661 C   0  0  0  0  0  0  0  0  0  0  0  0
  -11.3646  -17.6946   23.5320 C   0  0  0  0  0  0  0  0  0  0  0  0
  -11.0951  -16.3301   23.5985 C   0  0  0  0  0  0  0  0  0  0  0  0
   -9.9745  -15.8824   24.2733 C   0  0  0  0  0  0  0  0  0  0  0  0
   -9.1367  -16.8095   24.9357 C   0  0  0  0  0  0  0  0  0  0  0  0
  -10.0047  -14.3828   24.2691 C   0  0  0  0  0  0  0  0  0  0  0  0
  -10.9520  -14.0619   23.2086 O   0  0  0  0  0  0  0  0  0  0  0  0
  -11.9141  -15.1588   23.1589 C   0  0  0  0  0  0  0  0  0  0  0  0
   -8.5635  -20.5494   25.9425 C   0  0  0  0  0  0  0  0  0  0  0  0
   -9.6854  -21.6698   25.8498 C   0  0  0  0  0  0  0  0  0  0  0  0
   -9.4989  -22.9489   26.4454 C   0  0  0  0  0  0  0  0  0  0  0  0
  -10.6855  -23.6102   26.2850 C   0  0  0  0  0  0  0  0  0  0  0  0
  -11.4861  -22.7465   25.6123 N   0  0  0  0  0  0  0  0  0  0  0  0
  -10.8997  -21.5756   25.3026 N   0  0  0  0  0  0  0  0  0  0  0  0
   -7.4540  -20.9330   26.5777 N   0  0  0  0  0  0  0  0  0  0  0  0
   -5.6966  -19.8851   27.1663 H   0  0  0  0  0  0  0  0  0  0  0  0
   -6.8957  -17.7677   25.9953 H   0  0  0  0  0  0  0  0  0  0  0  0
  -10.7508  -19.6814   24.0348 H   0  0  0  0  0  0  0  0  0  0  0  0
  -12.2453  -18.0560   23.0055 H   0  0  0  0  0  0  0  0  0  0  0  0
   -8.3125  -16.3929   25.5056 H   0  0  0  0  0  0  0  0  0  0  0  0
   -9.0501  -13.9072   24.0626 H   0  0  0  0  0  0  0  0  0  0  0  0
  -10.4073  -14.0024   25.2140 H   0  0  0  0  0  0  0  0  0  0  0  0
  -12.3197  -15.2572   22.1495 H   0  0  0  0  0  0  0  0  0  0  0  0
  -12.7192  -14.9478   23.8702 H   0  0  0  0  0  0  0  0  0  0  0  0
   -8.6173  -23.3058   26.9540 H   0  0  0  0  0  0  0  0  0  0  0  0
  -11.0206  -24.5884   26.5923 H   0  0  0  0  0  0  0  0  0  0  0  0
  -12.4460  -22.8907   25.3222 H   0  0  0  0  0  0  0  0  0  0  0  0
  1  2  2  0
  2  3  1  0
  3  4  1  0
  4  5  2  0
  5  6  1  0
  6  7  2  0
  7  8  1  0
  8  9  2  0
  8 10  1  0
 10 11  1  0
 11 12  1  0
  3 13  1  0
 13 14  1  0
 14 15  1  0
 15 16  2  0
 16 17  1  0
 17 18  1  0
 13 19  2  0
 19  1  1  0
  9  4  1  0
 18 14  2  0
 12  7  1  0
  1 20  1  0
  2 21  1  0
  5 22  1  0
  6 23  1  0
  9 24  1  0
 10 25  1  0
 10 26  1  0
 12 27  1  0
 12 28  1  0
 15 29  1  0
 16 30  1  0
 17 31  1  0
M  END
>  <Energy>  (894) 
94.814281043752786

>  <compound_id>  (894) 
10613

>  <target_id>  (894) 
1

>  <reference_id>  (894) 
99

>  <inspiration_ids>  (894) 
[35, 99]

>  <energy_score>  (894) 
-16.51605095215018

>  <distance_score>  (894) 
14.170345058943546

>  <path>  (894) 
/opt/xchem-fragalysis-2/maxwin/BulkDock/SCRATCH/511023/C10613-P99/C10613-P99.minimised.mol

>  <scratch_subdir>  (894) 
/opt/xchem-fragalysis-2/maxwin/BulkDock/SCRATCH/511023/C10613-P99

>  <fragmenstein_runtime>  (894) 
25.241666078567505

>  <fragmenstein_outcome>  (894) 
too moved

>  <fragmenstein_mode>  (894) 
expansion

>  <fragmenstein_error>  (894) 


$$$$
C46835-P122
     RDKit          3D

 38 40  0  0  0  0  0  0  0  0999 V2000
    5.4491  -23.3153   13.2355 C   0  0  0  0  0  0  0  0  0  0  0  0
    4.8420  -22.5399   14.4225 C   0  0  0  0  0  0  0  0  0  0  0  0
    5.7752  -21.3606   14.7622 C   0  0  0  0  0  0  0  0  0  0  0  0
    3.4993  -21.9103   14.0763 C   0  0  0  0  0  0  0  0  0  0  0  0
    2.8000  -21.2638   14.8403 O   0  0  0  0  0  0  0  0  0  0  0  0
    3.1575  -22.0379   12.7760 O   0  0  0  0  0  0  0  0  0  0  0  0
    4.6898  -23.4728   15.5530 N   0  0  0  0  0  0  0  0  0  0  0  0
    5.6804  -23.8441   16.4248 C   0  0  0  0  0  0  0  0  0  0  0  0
    5.2265  -25.0006   17.0275 C   0  0  0  0  0  0  0  0  0  0  0  0
    3.9198  -25.2523   16.5279 C   0  0  0  0  0  0  0  0  0  0  0  0
    3.0312  -26.2812   16.8616 N   0  0  0  0  0  0  0  0  0  0  0  0
    3.1268  -27.3434   17.8599 C   0  0  0  0  0  0  0  0  0  0  0  0
    4.0285  -27.6504   18.5944 O   0  0  0  0  0  0  0  0  0  0  0  0
    1.8072  -28.2120   18.0157 C   0  0  0  0  0  0  0  0  0  0  0  0
    1.0184  -28.6982   16.8749 C   0  0  0  0  0  0  0  0  0  0  0  0
   -0.0823  -29.4545   17.0772 C   0  0  0  0  0  0  0  0  0  0  0  0
   -0.5044  -29.7838   18.3667 N   0  0  0  0  0  0  0  0  0  0  0  0
   -1.6111  -30.4861   18.7185 N   0  0  0  0  0  0  0  0  0  0  0  0
   -1.5826  -30.5299   20.0522 C   0  0  0  0  0  0  0  0  0  0  0  0
   -0.4705  -29.8523   20.5854 C   0  0  0  0  0  0  0  0  0  0  0  0
    0.2129  -29.3681   19.4871 C   0  0  0  0  0  0  0  0  0  0  0  0
    1.4088  -28.5857   19.2691 C   0  0  0  0  0  0  0  0  0  0  0  0
    3.6270  -24.3298   15.5933 N   0  0  0  0  0  0  0  0  0  0  0  0
    4.7918  -24.1308   12.9105 H   0  0  0  0  0  0  0  0  0  0  0  0
    5.6166  -22.6617   12.3715 H   0  0  0  0  0  0  0  0  0  0  0  0
    6.4146  -23.7618   13.5013 H   0  0  0  0  0  0  0  0  0  0  0  0
    5.4613  -20.8633   15.6853 H   0  0  0  0  0  0  0  0  0  0  0  0
    6.8140  -21.6825   14.8946 H   0  0  0  0  0  0  0  0  0  0  0  0
    5.7670  -20.6071   13.9654 H   0  0  0  0  0  0  0  0  0  0  0  0
    2.2396  -21.6550   12.7024 H   0  0  0  0  0  0  0  0  0  0  0  0
    6.6194  -23.3176   16.5062 H   0  0  0  0  0  0  0  0  0  0  0  0
    5.7562  -25.6002   17.7550 H   0  0  0  0  0  0  0  0  0  0  0  0
    2.0948  -26.2623   16.4876 H   0  0  0  0  0  0  0  0  0  0  0  0
    1.3545  -28.4625   15.8700 H   0  0  0  0  0  0  0  0  0  0  0  0
   -0.6931  -29.8415   16.2720 H   0  0  0  0  0  0  0  0  0  0  0  0
   -2.3711  -31.0530   20.5795 H   0  0  0  0  0  0  0  0  0  0  0  0
   -0.2050  -29.7298   21.6256 H   0  0  0  0  0  0  0  0  0  0  0  0
    1.9848  -28.2769   20.1385 H   0  0  0  0  0  0  0  0  0  0  0  0
  1  2  1  0
  2  3  1  0
  2  4  1  0
  4  5  2  0
  4  6  1  0
  2  7  1  0
  7  8  1  0
  8  9  2  0
  9 10  1  0
 10 11  1  0
 11 12  1  0
 12 13  2  0
 12 14  1  0
 14 15  1  0
 15 16  2  0
 16 17  1  0
 17 18  1  0
 18 19  2  0
 19 20  1  0
 20 21  2  0
 21 22  1  0
 10 23  2  0
 23  7  1  0
 22 14  2  0
 21 17  1  0
  1 24  1  0
  1 25  1  0
  1 26  1  0
  3 27  1  0
  3 28  1  0
  3 29  1  0
  6 30  1  0
  8 31  1  0
  9 32  1  0
 11 33  1  0
 15 34  1  0
 16 35  1  0
 19 36  1  0
 20 37  1  0
 22 38  1  0
M  END
>  <Energy>  (895) 
8.0273241504444286

>  <compound_id>  (895) 
46835

>  <target_id>  (895) 
1

>  <reference_id>  (895) 
122

>  <inspiration_ids>  (895) 
[122, 68]

>  <energy_score>  (895) 
-32.76970553287049

>  <distance_score>  (895) 
17.921887333940596

>  <path>  (895) 
/opt/xchem-fragalysis-2/maxwin/BulkDock/SCRATCH/511023/C46835-P122/C46835-P122.minimised.mol

>  <scratch_subdir>  (895) 
/opt/xchem-fragalysis-2/maxwin/BulkDock/SCRATCH/511023/C46835-P122

>  <fragmenstein_runtime>  (895) 
19.641918420791626

>  <fragmenstein_outcome>  (895) 
too moved

>  <fragmenstein_mode>  (895) 
expansion

>  <fragmenstein_error>  (895) 


$$$$
C46835-P68
     RDKit          3D

 38 40  0  0  0  0  0  0  0  0999 V2000
    8.0858  -17.3963   13.9532 C   0  0  0  0  0  0  0  0  0  0  0  0
    7.5338  -17.0685   15.3504 C   0  0  0  0  0  0  0  0  0  0  0  0
    7.6858  -15.5542   15.6020 C   0  0  0  0  0  0  0  0  0  0  0  0
    8.4003  -17.8177   16.3850 C   0  0  0  0  0  0  0  0  0  0  0  0
    9.3323  -17.2971   16.9900 O   0  0  0  0  0  0  0  0  0  0  0  0
    8.1243  -19.1354   16.5664 O   0  0  0  0  0  0  0  0  0  0  0  0
    6.1275  -17.4925   15.4337 N   0  0  0  0  0  0  0  0  0  0  0  0
    4.9885  -16.7495   15.3680 C   0  0  0  0  0  0  0  0  0  0  0  0
    3.9534  -17.6559   15.4984 C   0  0  0  0  0  0  0  0  0  0  0  0
    4.5362  -18.9448   15.6488 C   0  0  0  0  0  0  0  0  0  0  0  0
    3.9029  -20.1548   15.9330 N   0  0  0  0  0  0  0  0  0  0  0  0
    4.4424  -21.4829   16.1399 C   0  0  0  0  0  0  0  0  0  0  0  0
    5.5697  -21.8971   16.0407 O   0  0  0  0  0  0  0  0  0  0  0  0
    3.4215  -22.5886   16.6416 C   0  0  0  0  0  0  0  0  0  0  0  0
    3.8407  -24.0009   16.4309 C   0  0  0  0  0  0  0  0  0  0  0  0
    3.3333  -25.0072   17.1630 C   0  0  0  0  0  0  0  0  0  0  0  0
    2.3109  -24.7588   18.0689 N   0  0  0  0  0  0  0  0  0  0  0  0
    1.7733  -25.6251   18.9857 N   0  0  0  0  0  0  0  0  0  0  0  0
    0.8370  -24.9089   19.5992 C   0  0  0  0  0  0  0  0  0  0  0  0
    0.7858  -23.5791   19.1380 C   0  0  0  0  0  0  0  0  0  0  0  0
    1.7428  -23.4869   18.1625 C   0  0  0  0  0  0  0  0  0  0  0  0
    2.3510  -22.3837   17.4527 C   0  0  0  0  0  0  0  0  0  0  0  0
    5.8691  -18.8218   15.5355 N   0  0  0  0  0  0  0  0  0  0  0  0
    9.1354  -17.0937   13.8612 H   0  0  0  0  0  0  0  0  0  0  0  0
    7.5149  -16.8845   13.1699 H   0  0  0  0  0  0  0  0  0  0  0  0
    8.0420  -18.4715   13.7430 H   0  0  0  0  0  0  0  0  0  0  0  0
    8.7374  -15.2453   15.5681 H   0  0  0  0  0  0  0  0  0  0  0  0
    7.1558  -14.9616   14.8477 H   0  0  0  0  0  0  0  0  0  0  0  0
    7.2960  -15.2751   16.5882 H   0  0  0  0  0  0  0  0  0  0  0  0
    7.3161  -19.4199   16.0522 H   0  0  0  0  0  0  0  0  0  0  0  0
    4.9801  -15.6766   15.2412 H   0  0  0  0  0  0  0  0  0  0  0  0
    2.9022  -17.4226   15.5017 H   0  0  0  0  0  0  0  0  0  0  0  0
    2.8939  -20.1897   16.0255 H   0  0  0  0  0  0  0  0  0  0  0  0
    4.6445  -24.1850   15.7241 H   0  0  0  0  0  0  0  0  0  0  0  0
    3.6851  -26.0255   17.0967 H   0  0  0  0  0  0  0  0  0  0  0  0
    0.2834  -25.3814   20.3956 H   0  0  0  0  0  0  0  0  0  0  0  0
    0.2507  -22.7354   19.5392 H   0  0  0  0  0  0  0  0  0  0  0  0
    2.0557  -21.3807   17.7432 H   0  0  0  0  0  0  0  0  0  0  0  0
  1  2  1  0
  2  3  1  0
  2  4  1  0
  4  5  2  0
  4  6  1  0
  2  7  1  0
  7  8  1  0
  8  9  2  0
  9 10  1  0
 10 11  1  0
 11 12  1  0
 12 13  2  0
 12 14  1  0
 14 15  1  0
 15 16  2  0
 16 17  1  0
 17 18  1  0
 18 19  2  0
 19 20  1  0
 20 21  2  0
 21 22  1  0
 10 23  2  0
 23  7  1  0
 22 14  2  0
 21 17  1  0
  1 24  1  0
  1 25  1  0
  1 26  1  0
  3 27  1  0
  3 28  1  0
  3 29  1  0
  6 30  1  0
  8 31  1  0
  9 32  1  0
 11 33  1  0
 15 34  1  0
 16 35  1  0
 19 36  1  0
 20 37  1  0
 22 38  1  0
M  END
>  <Energy>  (896) 
17.398912702121272

>  <compound_id>  (896) 
46835

>  <target_id>  (896) 
1

>  <reference_id>  (896) 
68

>  <inspiration_ids>  (896) 
[122, 68]

>  <energy_score>  (896) 
-23.398116981189446

>  <distance_score>  (896) 
17.635423149286108

>  <path>  (896) 
/opt/xchem-fragalysis-2/maxwin/BulkDock/SCRATCH/511023/C46835-P68/C46835-P68.minimised.mol

>  <scratch_subdir>  (896) 
/opt/xchem-fragalysis-2/maxwin/BulkDock/SCRATCH/511023/C46835-P68

>  <fragmenstein_runtime>  (896) 
17.377683877944946

>  <fragmenstein_outcome>  (896) 
too moved

>  <fragmenstein_mode>  (896) 
expansion

>  <fragmenstein_error>  (896) 


$$$$
C46837-P122
     RDKit          3D

 45 48  0  0  0  0  0  0  0  0999 V2000
   13.3559  -14.1048   11.9328 O   0  0  0  0  0  0  0  0  0  0  0  0
   12.6198  -13.1484   12.1054 C   0  0  0  0  0  0  0  0  0  0  0  0
   10.9447  -13.7347   12.7894 C   0  0  0  0  0  0  0  0  0  0  0  0
   10.3962  -15.3083   12.9842 O   0  0  0  0  0  0  0  0  0  0  0  0
    9.3175  -16.0511   13.5554 C   0  0  0  0  0  0  0  0  0  0  0  0
    8.2395  -15.6522   14.3401 C   0  0  0  0  0  0  0  0  0  0  0  0
    7.2395  -16.6070   14.8561 C   0  0  0  0  0  0  0  0  0  0  0  0
    7.2218  -18.0019   14.6251 C   0  0  0  0  0  0  0  0  0  0  0  0
    6.2540  -18.8535   15.1155 N   0  0  0  0  0  0  0  0  0  0  0  0
    6.2993  -20.1778   14.8077 C   0  0  0  0  0  0  0  0  0  0  0  0
    7.3105  -20.7176   14.0518 C   0  0  0  0  0  0  0  0  0  0  0  0
    8.3063  -19.8421   13.5744 C   0  0  0  0  0  0  0  0  0  0  0  0
    8.2858  -18.4483   13.8415 C   0  0  0  0  0  0  0  0  0  0  0  0
    9.2931  -17.4789   13.3413 C   0  0  0  0  0  0  0  0  0  0  0  0
   12.8897  -11.5550   11.8192 N   0  0  0  0  0  0  0  0  0  0  0  0
   14.2270  -10.7872   11.3068 C   0  0  0  0  0  0  0  0  0  0  0  0
   15.4247  -11.4620   11.1393 C   0  0  0  0  0  0  0  0  0  0  0  0
   16.4173  -10.5849   10.6500 C   0  0  0  0  0  0  0  0  0  0  0  0
   16.0684   -9.3232   10.4415 N   0  0  0  0  0  0  0  0  0  0  0  0
   14.8004   -9.1956   10.9417 N   0  0  0  0  0  0  0  0  0  0  0  0
   13.9144   -7.5132   10.8110 C   0  0  0  0  0  0  0  0  0  0  0  0
   13.1284   -5.7187   11.2616 C   0  0  0  0  0  0  0  0  0  0  0  0
   11.7834   -5.5193   10.6891 C   0  0  0  0  0  0  0  0  0  0  0  0
   11.3171   -7.0339   10.9580 C   0  0  0  0  0  0  0  0  0  0  0  0
   12.3558   -7.9108   11.3472 C   0  0  0  0  0  0  0  0  0  0  0  0
   10.8692  -13.3150   13.7962 H   0  0  0  0  0  0  0  0  0  0  0  0
   10.2017  -13.3089   12.1132 H   0  0  0  0  0  0  0  0  0  0  0  0
    8.1250  -14.6014   14.6022 H   0  0  0  0  0  0  0  0  0  0  0  0
    6.4419  -16.1956   15.4746 H   0  0  0  0  0  0  0  0  0  0  0  0
    5.4845  -20.7836   15.1931 H   0  0  0  0  0  0  0  0  0  0  0  0
    7.3373  -21.7756   13.8189 H   0  0  0  0  0  0  0  0  0  0  0  0
    9.1115  -20.2527   12.9670 H   0  0  0  0  0  0  0  0  0  0  0  0
   10.1075  -17.8875   12.7371 H   0  0  0  0  0  0  0  0  0  0  0  0
   12.0475  -11.0354   11.9932 H   0  0  0  0  0  0  0  0  0  0  0  0
   15.5575  -12.5214   11.3169 H   0  0  0  0  0  0  0  0  0  0  0  0
   17.4312  -10.8667   10.3935 H   0  0  0  0  0  0  0  0  0  0  0  0
   14.7937   -6.8265   10.7323 H   0  0  0  0  0  0  0  0  0  0  0  0
   13.7013   -4.7803   11.4020 H   0  0  0  0  0  0  0  0  0  0  0  0
   12.5632   -5.5482   12.1292 H   0  0  0  0  0  0  0  0  0  0  0  0
   11.8107   -5.2151    9.6605 H   0  0  0  0  0  0  0  0  0  0  0  0
   11.2291   -4.7947   11.2741 H   0  0  0  0  0  0  0  0  0  0  0  0
   11.3257   -7.3712   10.0681 H   0  0  0  0  0  0  0  0  0  0  0  0
   10.3308   -7.6595   10.6879 H   0  0  0  0  0  0  0  0  0  0  0  0
   12.2024   -8.9502   11.6892 H   0  0  0  0  0  0  0  0  0  0  0  0
   12.0542   -7.1821   12.0166 H   0  0  0  0  0  0  0  0  0  0  0  0
  1  2  2  0
  2  3  1  0
  3  4  1  0
  4  5  1  0
  5  6  2  0
  6  7  1  0
  7  8  2  0
  8  9  1  0
  9 10  2  0
 10 11  1  0
 11 12  2  0
 12 13  1  0
 13 14  2  0
  2 15  1  0
 15 16  1  0
 16 17  2  0
 17 18  1  0
 18 19  2  0
 19 20  1  0
 20 21  1  0
 21 22  1  0
 22 23  1  0
 23 24  1  0
 24 25  1  0
 14  5  1  0
 20 16  1  0
 25 21  1  0
 13  8  1  0
  3 26  1  0
  3 27  1  0
  6 28  1  0
  7 29  1  0
 10 30  1  0
 11 31  1  0
 12 32  1  0
 14 33  1  0
 15 34  1  0
 17 35  1  0
 18 36  1  0
 21 37  1  0
 22 38  1  0
 22 39  1  0
 23 40  1  0
 23 41  1  0
 24 42  1  0
 24 43  1  0
 25 44  1  0
 25 45  1  0
M  END
>  <Energy>  (897) 
670.43356720767213

>  <compound_id>  (897) 
46837

>  <target_id>  (897) 
1

>  <reference_id>  (897) 
122

>  <inspiration_ids>  (897) 
[122, 68]

>  <energy_score>  (897) 
548.4617082204544

>  <distance_score>  (897) 
22.528741099500735

>  <path>  (897) 
/opt/xchem-fragalysis-2/maxwin/BulkDock/SCRATCH/511023/C46837-P122/C46837-P122.minimised.mol

>  <scratch_subdir>  (897) 
/opt/xchem-fragalysis-2/maxwin/BulkDock/SCRATCH/511023/C46837-P122

>  <fragmenstein_runtime>  (897) 
20.594319343566895

>  <fragmenstein_outcome>  (897) 
too moved

>  <fragmenstein_mode>  (897) 
expansion

>  <fragmenstein_error>  (897) 


$$$$
C46837-P68
     RDKit          3D

 45 48  0  0  0  0  0  0  0  0999 V2000
   -6.2772  -27.6496   24.8840 O   0  0  0  0  0  0  0  0  0  0  0  0
   -6.5094  -27.8094   23.7089 C   0  0  0  0  0  0  0  0  0  0  0  0
   -7.9092  -28.9713   23.3390 C   0  0  0  0  0  0  0  0  0  0  0  0
   -8.7152  -30.4897   23.5452 O   0  0  0  0  0  0  0  0  0  0  0  0
   -9.8686  -31.5719   23.0423 C   0  0  0  0  0  0  0  0  0  0  0  0
  -10.6365  -31.4450   21.8748 C   0  0  0  0  0  0  0  0  0  0  0  0
  -11.2915  -32.5782   21.3506 C   0  0  0  0  0  0  0  0  0  0  0  0
  -11.1838  -33.8491   21.9180 C   0  0  0  0  0  0  0  0  0  0  0  0
  -11.7179  -34.9229   21.3078 N   0  0  0  0  0  0  0  0  0  0  0  0
  -11.5141  -36.1438   21.8572 C   0  0  0  0  0  0  0  0  0  0  0  0
  -10.8146  -36.3570   23.0267 C   0  0  0  0  0  0  0  0  0  0  0  0
  -10.2916  -35.2469   23.6709 C   0  0  0  0  0  0  0  0  0  0  0  0
  -10.4603  -33.9725   23.1102 C   0  0  0  0  0  0  0  0  0  0  0  0
   -9.8444  -32.8455   23.6727 C   0  0  0  0  0  0  0  0  0  0  0  0
   -5.9174  -27.1457   22.5021 N   0  0  0  0  0  0  0  0  0  0  0  0
   -4.9729  -26.0611   22.3870 C   0  0  0  0  0  0  0  0  0  0  0  0
   -4.4759  -25.5289   21.1855 C   0  0  0  0  0  0  0  0  0  0  0  0
   -3.6364  -24.4344   21.4898 C   0  0  0  0  0  0  0  0  0  0  0  0
   -3.5780  -24.2274   22.7981 N   0  0  0  0  0  0  0  0  0  0  0  0
   -4.3583  -25.2234   23.3390 N   0  0  0  0  0  0  0  0  0  0  0  0
   -4.4845  -25.2989   24.7896 C   0  0  0  0  0  0  0  0  0  0  0  0
   -5.7903  -24.6767   25.2867 C   0  0  0  0  0  0  0  0  0  0  0  0
   -5.4782  -23.1904   25.4159 C   0  0  0  0  0  0  0  0  0  0  0  0
   -3.9974  -23.1096   25.7772 C   0  0  0  0  0  0  0  0  0  0  0  0
   -3.4305  -24.5180   25.5921 C   0  0  0  0  0  0  0  0  0  0  0  0
   -8.1974  -29.0187   22.3361 H   0  0  0  0  0  0  0  0  0  0  0  0
   -8.5245  -28.2168   23.8708 H   0  0  0  0  0  0  0  0  0  0  0  0
  -10.6800  -30.5273   21.3114 H   0  0  0  0  0  0  0  0  0  0  0  0
  -11.8456  -32.4800   20.4174 H   0  0  0  0  0  0  0  0  0  0  0  0
  -11.9517  -36.9729   21.3081 H   0  0  0  0  0  0  0  0  0  0  0  0
  -10.6793  -37.3560   23.4246 H   0  0  0  0  0  0  0  0  0  0  0  0
   -9.7214  -35.3807   24.5878 H   0  0  0  0  0  0  0  0  0  0  0  0
   -9.2112  -33.0349   24.5262 H   0  0  0  0  0  0  0  0  0  0  0  0
   -6.2854  -27.5803   21.6714 H   0  0  0  0  0  0  0  0  0  0  0  0
   -4.7093  -25.8959   20.1958 H   0  0  0  0  0  0  0  0  0  0  0  0
   -3.0847  -23.7909   20.8176 H   0  0  0  0  0  0  0  0  0  0  0  0
   -4.3835  -26.3563   25.0424 H   0  0  0  0  0  0  0  0  0  0  0  0
   -6.0388  -25.0817   26.2756 H   0  0  0  0  0  0  0  0  0  0  0  0
   -6.6463  -24.8493   24.6270 H   0  0  0  0  0  0  0  0  0  0  0  0
   -6.1109  -22.7051   26.1654 H   0  0  0  0  0  0  0  0  0  0  0  0
   -5.6547  -22.6833   24.4599 H   0  0  0  0  0  0  0  0  0  0  0  0
   -3.4862  -22.3883   25.1302 H   0  0  0  0  0  0  0  0  0  0  0  0
   -3.8585  -22.7733   26.8104 H   0  0  0  0  0  0  0  0  0  0  0  0
   -3.3216  -24.9811   26.5816 H   0  0  0  0  0  0  0  0  0  0  0  0
   -2.4364  -24.5086   25.1342 H   0  0  0  0  0  0  0  0  0  0  0  0
  1  2  2  0
  2  3  1  0
  3  4  1  0
  4  5  1  0
  5  6  2  0
  6  7  1  0
  7  8  2  0
  8  9  1  0
  9 10  2  0
 10 11  1  0
 11 12  2  0
 12 13  1  0
 13 14  2  0
  2 15  1  0
 15 16  1  0
 16 17  2  0
 17 18  1  0
 18 19  2  0
 19 20  1  0
 20 21  1  0
 21 22  1  0
 22 23  1  0
 23 24  1  0
 24 25  1  0
 14  5  1  0
 20 16  1  0
 25 21  1  0
 13  8  1  0
  3 26  1  0
  3 27  1  0
  6 28  1  0
  7 29  1  0
 10 30  1  0
 11 31  1  0
 12 32  1  0
 14 33  1  0
 15 34  1  0
 17 35  1  0
 18 36  1  0
 21 37  1  0
 22 38  1  0
 22 39  1  0
 23 40  1  0
 23 41  1  0
 24 42  1  0
 24 43  1  0
 25 44  1  0
 25 45  1  0
M  END
>  <Energy>  (898) 
251.30526718553651

>  <compound_id>  (898) 
46837

>  <target_id>  (898) 
1

>  <reference_id>  (898) 
68

>  <inspiration_ids>  (898) 
[122, 68]

>  <energy_score>  (898) 
129.3334081983188

>  <distance_score>  (898) 
17.869967649386798

>  <path>  (898) 
/opt/xchem-fragalysis-2/maxwin/BulkDock/SCRATCH/511023/C46837-P68/C46837-P68.minimised.mol

>  <scratch_subdir>  (898) 
/opt/xchem-fragalysis-2/maxwin/BulkDock/SCRATCH/511023/C46837-P68

>  <fragmenstein_runtime>  (898) 
42.00270438194275

>  <fragmenstein_outcome>  (898) 
too moved

>  <fragmenstein_mode>  (898) 
expansion

>  <fragmenstein_error>  (898) 


$$$$
C46838-P122
     RDKit          3D

 42 45  0  0  0  0  0  0  0  0999 V2000
    2.4433   -9.7202   16.0581 O   0  0  0  0  0  0  0  0  0  0  0  0
    2.5439   -9.3683   17.2070 C   0  0  0  0  0  0  0  0  0  0  0  0
    2.9770   -7.8592   17.4383 C   0  0  0  0  0  0  0  0  0  0  0  0
    4.4008   -7.2728   17.4354 C   0  0  0  0  0  0  0  0  0  0  0  0
    4.9917   -6.7645   18.5865 C   0  0  0  0  0  0  0  0  0  0  0  0
    6.1516   -6.1567   18.1841 C   0  0  0  0  0  0  0  0  0  0  0  0
    6.3890   -6.3353   16.8205 N   0  0  0  0  0  0  0  0  0  0  0  0
    7.7310   -6.1509   15.6909 C   0  0  0  0  0  0  0  0  0  0  0  0
    8.7034   -4.3821   15.2447 C   0  0  0  0  0  0  0  0  0  0  0  0
   10.6278   -4.4328   15.1659 C   0  0  0  0  0  0  0  0  0  0  0  0
   11.0961   -6.2412   15.6459 C   0  0  0  0  0  0  0  0  0  0  0  0
    9.4431   -7.2983   15.2770 C   0  0  0  0  0  0  0  0  0  0  0  0
    5.1464   -6.9031   16.3618 N   0  0  0  0  0  0  0  0  0  0  0  0
    2.2291  -10.0919   18.4739 N   0  0  0  0  0  0  0  0  0  0  0  0
    1.6354  -11.3561   18.6949 C   0  0  0  0  0  0  0  0  0  0  0  0
    0.5707  -11.7988   17.7730 C   0  0  0  0  0  0  0  0  0  0  0  0
   -0.2974  -12.7632   18.1339 C   0  0  0  0  0  0  0  0  0  0  0  0
   -0.1017  -13.4845   19.3038 N   0  0  0  0  0  0  0  0  0  0  0  0
   -0.8464  -14.4905   19.7792 N   0  0  0  0  0  0  0  0  0  0  0  0
   -0.0707  -15.0913   20.6687 C   0  0  0  0  0  0  0  0  0  0  0  0
    1.0353  -14.3063   21.0158 C   0  0  0  0  0  0  0  0  0  0  0  0
    1.0024  -13.2589   20.1184 C   0  0  0  0  0  0  0  0  0  0  0  0
    1.8079  -12.0923   19.8338 C   0  0  0  0  0  0  0  0  0  0  0  0
    2.4210   -7.2937   16.6745 H   0  0  0  0  0  0  0  0  0  0  0  0
    2.5018   -7.5516   18.3815 H   0  0  0  0  0  0  0  0  0  0  0  0
    4.6073   -6.7698   19.5960 H   0  0  0  0  0  0  0  0  0  0  0  0
    6.6803   -5.5638   18.8838 H   0  0  0  0  0  0  0  0  0  0  0  0
    7.0954   -6.8665   15.1772 H   0  0  0  0  0  0  0  0  0  0  0  0
    8.2433   -3.3981   15.0139 H   0  0  0  0  0  0  0  0  0  0  0  0
    8.8023   -5.0240   14.4156 H   0  0  0  0  0  0  0  0  0  0  0  0
   11.0275   -3.7716   15.9423 H   0  0  0  0  0  0  0  0  0  0  0  0
   10.9615   -4.1629   14.1619 H   0  0  0  0  0  0  0  0  0  0  0  0
   12.0574   -6.7616   15.7607 H   0  0  0  0  0  0  0  0  0  0  0  0
   11.2051   -5.8407   16.6373 H   0  0  0  0  0  0  0  0  0  0  0  0
    8.8347   -7.3405   14.3998 H   0  0  0  0  0  0  0  0  0  0  0  0
    9.6660   -8.3810   15.4658 H   0  0  0  0  0  0  0  0  0  0  0  0
    2.5151   -9.5234   19.2614 H   0  0  0  0  0  0  0  0  0  0  0  0
    0.4368  -11.2638   16.8377 H   0  0  0  0  0  0  0  0  0  0  0  0
   -1.1468  -13.0503   17.5272 H   0  0  0  0  0  0  0  0  0  0  0  0
   -0.3605  -16.0713   20.9978 H   0  0  0  0  0  0  0  0  0  0  0  0
    1.8065  -14.4879   21.7469 H   0  0  0  0  0  0  0  0  0  0  0  0
    2.5416  -11.7897   20.5734 H   0  0  0  0  0  0  0  0  0  0  0  0
  1  2  2  0
  2  3  1  0
  3  4  1  0
  4  5  1  0
  5  6  2  0
  6  7  1  0
  7  8  1  0
  8  9  1  0
  9 10  1  0
 10 11  1  0
 11 12  1  0
  7 13  1  0
  2 14  1  0
 14 15  1  0
 15 16  1  0
 16 17  2  0
 17 18  1  0
 18 19  1  0
 19 20  2  0
 20 21  1  0
 21 22  2  0
 22 23  1  0
 13  4  2  0
 23 15  2  0
 12  8  1  0
 22 18  1  0
  3 24  1  0
  3 25  1  0
  5 26  1  0
  6 27  1  0
  8 28  1  0
  9 29  1  0
  9 30  1  0
 10 31  1  0
 10 32  1  0
 11 33  1  0
 11 34  1  0
 12 35  1  0
 12 36  1  0
 14 37  1  0
 16 38  1  0
 17 39  1  0
 20 40  1  0
 21 41  1  0
 23 42  1  0
M  END
>  <Energy>  (899) 
501.40005476447408

>  <compound_id>  (899) 
46838

>  <target_id>  (899) 
1

>  <reference_id>  (899) 
122

>  <inspiration_ids>  (899) 
[122, 68]

>  <energy_score>  (899) 
408.1639176791938

>  <distance_score>  (899) 
20.431658076270722

>  <path>  (899) 
/opt/xchem-fragalysis-2/maxwin/BulkDock/SCRATCH/511023/C46838-P122/C46838-P122.minimised.mol

>  <scratch_subdir>  (899) 
/opt/xchem-fragalysis-2/maxwin/BulkDock/SCRATCH/511023/C46838-P122

>  <fragmenstein_runtime>  (899) 
20.653313636779785

>  <fragmenstein_outcome>  (899) 
too moved

>  <fragmenstein_mode>  (899) 
expansion

>  <fragmenstein_error>  (899) 


$$$$
C46838-P68
     RDKit          3D

 42 45  0  0  0  0  0  0  0  0999 V2000
    4.9532  -21.4651   16.1905 O   0  0  0  0  0  0  0  0  0  0  0  0
    3.8129  -21.1019   16.3420 C   0  0  0  0  0  0  0  0  0  0  0  0
    3.3678  -19.6398   15.9182 C   0  0  0  0  0  0  0  0  0  0  0  0
    4.3939  -18.4759   15.8276 C   0  0  0  0  0  0  0  0  0  0  0  0
    5.6936  -18.4067   15.2451 C   0  0  0  0  0  0  0  0  0  0  0  0
    6.1182  -17.1005   15.3878 C   0  0  0  0  0  0  0  0  0  0  0  0
    5.0918  -16.4498   16.0017 N   0  0  0  0  0  0  0  0  0  0  0  0
    5.0567  -15.0521   16.3886 C   0  0  0  0  0  0  0  0  0  0  0  0
    5.3542  -14.8576   17.8891 C   0  0  0  0  0  0  0  0  0  0  0  0
    4.2498  -13.9541   18.4253 C   0  0  0  0  0  0  0  0  0  0  0  0
    3.0676  -14.2492   17.5216 C   0  0  0  0  0  0  0  0  0  0  0  0
    3.7023  -14.3649   16.1419 C   0  0  0  0  0  0  0  0  0  0  0  0
    4.0521  -17.2526   16.2916 N   0  0  0  0  0  0  0  0  0  0  0  0
    2.6220  -21.8326   16.8761 N   0  0  0  0  0  0  0  0  0  0  0  0
    2.5046  -23.1153   17.4397 C   0  0  0  0  0  0  0  0  0  0  0  0
    1.2276  -23.3774   18.1478 C   0  0  0  0  0  0  0  0  0  0  0  0
    1.0517  -24.4993   18.8709 C   0  0  0  0  0  0  0  0  0  0  0  0
    2.0610  -25.4444   18.9634 N   0  0  0  0  0  0  0  0  0  0  0  0
    2.0773  -26.5806   19.7483 N   0  0  0  0  0  0  0  0  0  0  0  0
    3.2759  -27.1229   19.5305 C   0  0  0  0  0  0  0  0  0  0  0  0
    4.0091  -26.4256   18.5483 C   0  0  0  0  0  0  0  0  0  0  0  0
    3.2371  -25.3292   18.2090 C   0  0  0  0  0  0  0  0  0  0  0  0
    3.4243  -24.1173   17.4230 C   0  0  0  0  0  0  0  0  0  0  0  0
    2.5979  -19.3188   16.6301 H   0  0  0  0  0  0  0  0  0  0  0  0
    2.8929  -19.7331   14.9336 H   0  0  0  0  0  0  0  0  0  0  0  0
    6.2337  -19.2178   14.7761 H   0  0  0  0  0  0  0  0  0  0  0  0
    7.0305  -16.6017   15.0937 H   0  0  0  0  0  0  0  0  0  0  0  0
    5.8214  -14.5643   15.7740 H   0  0  0  0  0  0  0  0  0  0  0  0
    5.3396  -15.8027   18.4377 H   0  0  0  0  0  0  0  0  0  0  0  0
    6.3423  -14.4153   18.0528 H   0  0  0  0  0  0  0  0  0  0  0  0
    4.5417  -12.9019   18.3368 H   0  0  0  0  0  0  0  0  0  0  0  0
    4.0281  -14.1539   19.4779 H   0  0  0  0  0  0  0  0  0  0  0  0
    2.6028  -15.1978   17.8129 H   0  0  0  0  0  0  0  0  0  0  0  0
    2.3057  -13.4658   17.5631 H   0  0  0  0  0  0  0  0  0  0  0  0
    3.0553  -14.8891   15.4317 H   0  0  0  0  0  0  0  0  0  0  0  0
    3.8746  -13.3571   15.7438 H   0  0  0  0  0  0  0  0  0  0  0  0
    1.8373  -21.1910   16.9389 H   0  0  0  0  0  0  0  0  0  0  0  0
    0.4466  -22.6345   18.0941 H   0  0  0  0  0  0  0  0  0  0  0  0
    0.1721  -24.7411   19.4303 H   0  0  0  0  0  0  0  0  0  0  0  0
    3.5560  -28.0190   20.0680 H   0  0  0  0  0  0  0  0  0  0  0  0
    4.9991  -26.6461   18.1781 H   0  0  0  0  0  0  0  0  0  0  0  0
    4.3725  -23.9784   16.9159 H   0  0  0  0  0  0  0  0  0  0  0  0
  1  2  2  0
  2  3  1  0
  3  4  1  0
  4  5  1  0
  5  6  2  0
  6  7  1  0
  7  8  1  0
  8  9  1  0
  9 10  1  0
 10 11  1  0
 11 12  1  0
  7 13  1  0
  2 14  1  0
 14 15  1  0
 15 16  1  0
 16 17  2  0
 17 18  1  0
 18 19  1  0
 19 20  2  0
 20 21  1  0
 21 22  2  0
 22 23  1  0
 13  4  2  0
 23 15  2  0
 12  8  1  0
 22 18  1  0
  3 24  1  0
  3 25  1  0
  5 26  1  0
  6 27  1  0
  8 28  1  0
  9 29  1  0
  9 30  1  0
 10 31  1  0
 10 32  1  0
 11 33  1  0
 11 34  1  0
 12 35  1  0
 12 36  1  0
 14 37  1  0
 16 38  1  0
 17 39  1  0
 20 40  1  0
 21 41  1  0
 23 42  1  0
M  END
>  <Energy>  (900) 
54.493978010112421

>  <compound_id>  (900) 
46838

>  <target_id>  (900) 
1

>  <reference_id>  (900) 
68

>  <inspiration_ids>  (900) 
[122, 68]

>  <energy_score>  (900) 
-38.74215907516441

>  <distance_score>  (900) 
17.04091935610679

>  <path>  (900) 
/opt/xchem-fragalysis-2/maxwin/BulkDock/SCRATCH/511023/C46838-P68/C46838-P68.minimised.mol

>  <scratch_subdir>  (900) 
/opt/xchem-fragalysis-2/maxwin/BulkDock/SCRATCH/511023/C46838-P68

>  <fragmenstein_runtime>  (900) 
31.09203839302063

>  <fragmenstein_outcome>  (900) 
too moved

>  <fragmenstein_mode>  (900) 
expansion

>  <fragmenstein_error>  (900) 


$$$$
C46841-P122
     RDKit          3D

 44 47  0  0  0  0  0  0  0  0999 V2000
   -0.3007  -24.6308   20.8219 O   0  0  0  0  0  0  0  0  0  0  0  0
   -0.3972  -24.8228   19.6402 C   0  0  0  0  0  0  0  0  0  0  0  0
    0.3009  -24.1996   18.5147 N   0  0  0  0  0  0  0  0  0  0  0  0
    1.4122  -23.2111   18.4863 C   0  0  0  0  0  0  0  0  0  0  0  0
    1.5978  -22.1439   17.3952 C   0  0  0  0  0  0  0  0  0  0  0  0
    2.1098  -20.8227   17.5909 C   0  0  0  0  0  0  0  0  0  0  0  0
    2.2133  -20.2412   16.3508 C   0  0  0  0  0  0  0  0  0  0  0  0
    1.8694  -21.2211   15.4739 N   0  0  0  0  0  0  0  0  0  0  0  0
    1.8726  -21.1727   14.0275 C   0  0  0  0  0  0  0  0  0  0  0  0
    3.0955  -20.5163   13.3867 C   0  0  0  0  0  0  0  0  0  0  0  0
    2.6264  -20.2685   11.9619 C   0  0  0  0  0  0  0  0  0  0  0  0
    1.1758  -19.8248   12.1138 C   0  0  0  0  0  0  0  0  0  0  0  0
    0.6752  -20.4345   13.4253 C   0  0  0  0  0  0  0  0  0  0  0  0
    1.4880  -22.3798   16.0786 N   0  0  0  0  0  0  0  0  0  0  0  0
   -1.3683  -26.0193   19.3712 C   0  0  0  0  0  0  0  0  0  0  0  0
   -1.3425  -26.8591   18.2604 C   0  0  0  0  0  0  0  0  0  0  0  0
   -2.1153  -28.0609   18.2277 C   0  0  0  0  0  0  0  0  0  0  0  0
   -2.9314  -28.4965   19.2761 C   0  0  0  0  0  0  0  0  0  0  0  0
   -3.6047  -29.6704   19.1945 N   0  0  0  0  0  0  0  0  0  0  0  0
   -4.3785  -30.0443   20.2410 C   0  0  0  0  0  0  0  0  0  0  0  0
   -4.5109  -29.2928   21.3901 C   0  0  0  0  0  0  0  0  0  0  0  0
   -3.8102  -28.0871   21.4672 C   0  0  0  0  0  0  0  0  0  0  0  0
   -2.9959  -27.6611   20.4007 C   0  0  0  0  0  0  0  0  0  0  0  0
   -2.2292  -26.4498   20.4296 C   0  0  0  0  0  0  0  0  0  0  0  0
   -0.0899  -24.5469   17.6499 H   0  0  0  0  0  0  0  0  0  0  0  0
    2.3240  -23.8219   18.4840 H   0  0  0  0  0  0  0  0  0  0  0  0
    1.3891  -22.7100   19.4614 H   0  0  0  0  0  0  0  0  0  0  0  0
    2.3491  -20.3824   18.5439 H   0  0  0  0  0  0  0  0  0  0  0  0
    2.5056  -19.2541   16.0298 H   0  0  0  0  0  0  0  0  0  0  0  0
    1.8396  -22.2160   13.6805 H   0  0  0  0  0  0  0  0  0  0  0  0
    3.9781  -21.1627   13.4235 H   0  0  0  0  0  0  0  0  0  0  0  0
    3.3577  -19.5670   13.8649 H   0  0  0  0  0  0  0  0  0  0  0  0
    2.6723  -21.1997   11.3846 H   0  0  0  0  0  0  0  0  0  0  0  0
    3.2365  -19.5215   11.4458 H   0  0  0  0  0  0  0  0  0  0  0  0
    0.5692  -20.1423   11.2597 H   0  0  0  0  0  0  0  0  0  0  0  0
    1.1192  -18.7321   12.1637 H   0  0  0  0  0  0  0  0  0  0  0  0
   -0.1574  -21.1245   13.2480 H   0  0  0  0  0  0  0  0  0  0  0  0
    0.3003  -19.6511   14.0911 H   0  0  0  0  0  0  0  0  0  0  0  0
   -0.6863  -26.6503   17.4202 H   0  0  0  0  0  0  0  0  0  0  0  0
   -2.0442  -28.6967   17.3457 H   0  0  0  0  0  0  0  0  0  0  0  0
   -4.9101  -30.9841   20.1210 H   0  0  0  0  0  0  0  0  0  0  0  0
   -5.1451  -29.6307   22.2028 H   0  0  0  0  0  0  0  0  0  0  0  0
   -3.8969  -27.4816   22.3662 H   0  0  0  0  0  0  0  0  0  0  0  0
   -2.2699  -25.8432   21.3363 H   0  0  0  0  0  0  0  0  0  0  0  0
  1  2  2  0
  2  3  1  0
  3  4  1  0
  4  5  1  0
  5  6  1  0
  6  7  2  0
  7  8  1  0
  8  9  1  0
  9 10  1  0
 10 11  1  0
 11 12  1  0
 12 13  1  0
  8 14  1  0
  2 15  1  0
 15 16  2  0
 16 17  1  0
 17 18  2  0
 18 19  1  0
 19 20  2  0
 20 21  1  0
 21 22  2  0
 22 23  1  0
 23 24  2  0
 14  5  2  0
 24 15  1  0
 13  9  1  0
 23 18  1  0
  3 25  1  0
  4 26  1  0
  4 27  1  0
  6 28  1  0
  7 29  1  0
  9 30  1  0
 10 31  1  0
 10 32  1  0
 11 33  1  0
 11 34  1  0
 12 35  1  0
 12 36  1  0
 13 37  1  0
 13 38  1  0
 16 39  1  0
 17 40  1  0
 20 41  1  0
 21 42  1  0
 22 43  1  0
 24 44  1  0
M  END
>  <Energy>  (901) 
71.357226301631343

>  <compound_id>  (901) 
46841

>  <target_id>  (901) 
1

>  <reference_id>  (901) 
122

>  <inspiration_ids>  (901) 
[122, 68]

>  <energy_score>  (901) 
0.9224163385789552

>  <distance_score>  (901) 
15.816810455957679

>  <path>  (901) 
/opt/xchem-fragalysis-2/maxwin/BulkDock/SCRATCH/511023/C46841-P122/C46841-P122.minimised.mol

>  <scratch_subdir>  (901) 
/opt/xchem-fragalysis-2/maxwin/BulkDock/SCRATCH/511023/C46841-P122

>  <fragmenstein_runtime>  (901) 
36.96400833129883

>  <fragmenstein_outcome>  (901) 
too moved

>  <fragmenstein_mode>  (901) 
expansion

>  <fragmenstein_error>  (901) 


$$$$
C46841-P68
     RDKit          3D

 44 47  0  0  0  0  0  0  0  0999 V2000
    1.1597  -15.4142   21.1274 O   0  0  0  0  0  0  0  0  0  0  0  0
    0.2009  -15.1153   21.8408 C   0  0  0  0  0  0  0  0  0  0  0  0
    0.1946  -13.4079   22.8475 N   0  0  0  0  0  0  0  0  0  0  0  0
    1.5144  -11.7997   22.8474 C   0  0  0  0  0  0  0  0  0  0  0  0
    2.5923  -10.1027   22.0417 C   0  0  0  0  0  0  0  0  0  0  0  0
    4.4487  -11.1526   21.7301 C   0  0  0  0  0  0  0  0  0  0  0  0
    5.4419  -10.5499   20.1812 C   0  0  0  0  0  0  0  0  0  0  0  0
    4.1377   -9.1978   19.2758 N   0  0  0  0  0  0  0  0  0  0  0  0
    4.4342   -7.5901   19.2581 C   0  0  0  0  0  0  0  0  0  0  0  0
    5.0341   -6.8274   20.4885 C   0  0  0  0  0  0  0  0  0  0  0  0
    3.9349   -5.8764   20.9483 C   0  0  0  0  0  0  0  0  0  0  0  0
    3.2286   -5.4956   19.6604 C   0  0  0  0  0  0  0  0  0  0  0  0
    3.1368   -6.8064   18.8894 C   0  0  0  0  0  0  0  0  0  0  0  0
    2.3708   -9.3811   20.3079 N   0  0  0  0  0  0  0  0  0  0  0  0
   -1.1898  -16.4507   21.5758 C   0  0  0  0  0  0  0  0  0  0  0  0
   -2.4031  -16.0830   20.7803 C   0  0  0  0  0  0  0  0  0  0  0  0
   -3.8859  -16.7513   21.1337 C   0  0  0  0  0  0  0  0  0  0  0  0
   -4.2218  -17.9674   21.9541 C   0  0  0  0  0  0  0  0  0  0  0  0
   -5.4474  -18.5681   22.0295 N   0  0  0  0  0  0  0  0  0  0  0  0
   -5.5649  -19.8263   22.5485 C   0  0  0  0  0  0  0  0  0  0  0  0
   -4.5121  -20.5506   23.0590 C   0  0  0  0  0  0  0  0  0  0  0  0
   -3.2683  -19.9319   23.0416 C   0  0  0  0  0  0  0  0  0  0  0  0
   -3.1002  -18.6490   22.4695 C   0  0  0  0  0  0  0  0  0  0  0  0
   -1.7823  -18.0038   22.3061 C   0  0  0  0  0  0  0  0  0  0  0  0
   -0.5970  -13.3768   23.4226 H   0  0  0  0  0  0  0  0  0  0  0  0
    1.8119  -11.7810   23.9059 H   0  0  0  0  0  0  0  0  0  0  0  0
    0.5861  -11.2668   22.6474 H   0  0  0  0  0  0  0  0  0  0  0  0
    4.2409  -12.2296   21.6587 H   0  0  0  0  0  0  0  0  0  0  0  0
    6.0588  -10.9922   19.3977 H   0  0  0  0  0  0  0  0  0  0  0  0
    5.1204   -7.3695   18.4832 H   0  0  0  0  0  0  0  0  0  0  0  0
    5.4277   -7.4168   21.3175 H   0  0  0  0  0  0  0  0  0  0  0  0
    5.8814   -6.2246   20.1312 H   0  0  0  0  0  0  0  0  0  0  0  0
    3.2431   -6.3908   21.6251 H   0  0  0  0  0  0  0  0  0  0  0  0
    4.3382   -5.0041   21.4708 H   0  0  0  0  0  0  0  0  0  0  0  0
    2.2447   -5.0533   19.8411 H   0  0  0  0  0  0  0  0  0  0  0  0
    3.8290   -4.7709   19.0992 H   0  0  0  0  0  0  0  0  0  0  0  0
    2.2177   -7.3238   19.1691 H   0  0  0  0  0  0  0  0  0  0  0  0
    3.0654   -6.6152   17.8136 H   0  0  0  0  0  0  0  0  0  0  0  0
   -2.3209  -15.1500   20.2699 H   0  0  0  0  0  0  0  0  0  0  0  0
   -4.7542  -16.3059   20.6471 H   0  0  0  0  0  0  0  0  0  0  0  0
   -6.5731  -20.2312   22.5331 H   0  0  0  0  0  0  0  0  0  0  0  0
   -4.6505  -21.5462   23.4608 H   0  0  0  0  0  0  0  0  0  0  0  0
   -2.4067  -20.4718   23.4276 H   0  0  0  0  0  0  0  0  0  0  0  0
   -1.0221  -18.6572   22.7701 H   0  0  0  0  0  0  0  0  0  0  0  0
  1  2  2  0
  2  3  1  0
  3  4  1  0
  4  5  1  0
  5  6  1  0
  6  7  2  0
  7  8  1  0
  8  9  1  0
  9 10  1  0
 10 11  1  0
 11 12  1  0
 12 13  1  0
  8 14  1  0
  2 15  1  0
 15 16  2  0
 16 17  1  0
 17 18  2  0
 18 19  1  0
 19 20  2  0
 20 21  1  0
 21 22  2  0
 22 23  1  0
 23 24  2  0
 14  5  2  0
 24 15  1  0
 13  9  1  0
 23 18  1  0
  3 25  1  0
  4 26  1  0
  4 27  1  0
  6 28  1  0
  7 29  1  0
  9 30  1  0
 10 31  1  0
 10 32  1  0
 11 33  1  0
 11 34  1  0
 12 35  1  0
 12 36  1  0
 13 37  1  0
 13 38  1  0
 16 39  1  0
 17 40  1  0
 20 41  1  0
 21 42  1  0
 22 43  1  0
 24 44  1  0
M  END
>  <Energy>  (902) 
1355.9062981929369

>  <compound_id>  (902) 
46841

>  <target_id>  (902) 
1

>  <reference_id>  (902) 
68

>  <inspiration_ids>  (902) 
[122, 68]

>  <energy_score>  (902) 
1285.471488229879

>  <distance_score>  (902) 
17.76444787923727

>  <path>  (902) 
/opt/xchem-fragalysis-2/maxwin/BulkDock/SCRATCH/511023/C46841-P68/C46841-P68.minimised.mol

>  <scratch_subdir>  (902) 
/opt/xchem-fragalysis-2/maxwin/BulkDock/SCRATCH/511023/C46841-P68

>  <fragmenstein_runtime>  (902) 
33.989704608917236

>  <fragmenstein_outcome>  (902) 
too moved

>  <fragmenstein_mode>  (902) 
expansion

>  <fragmenstein_error>  (902) 


$$$$
C46843-P122
     RDKit          3D

 41 44  0  0  0  0  0  0  0  0999 V2000
   -6.5933  -21.4212   26.4968 O   0  0  0  0  0  0  0  0  0  0  0  0
   -5.4152  -21.6906   26.7079 C   0  0  0  0  0  0  0  0  0  0  0  0
   -4.9495  -23.0062   26.7209 O   0  0  0  0  0  0  0  0  0  0  0  0
   -6.0089  -23.9828   26.4213 C   0  0  0  0  0  0  0  0  0  0  0  0
   -5.5797  -25.4315   26.0639 C   0  0  0  0  0  0  0  0  0  0  0  0
   -4.6622  -26.1397   26.9592 C   0  0  0  0  0  0  0  0  0  0  0  0
   -4.3112  -27.4147   26.7023 C   0  0  0  0  0  0  0  0  0  0  0  0
   -4.8268  -28.0846   25.5950 N   0  0  0  0  0  0  0  0  0  0  0  0
   -4.5177  -29.3364   25.1793 N   0  0  0  0  0  0  0  0  0  0  0  0
   -5.2919  -29.5326   24.1078 C   0  0  0  0  0  0  0  0  0  0  0  0
   -6.0947  -28.4192   23.8043 C   0  0  0  0  0  0  0  0  0  0  0  0
   -5.7486  -27.4762   24.7457 C   0  0  0  0  0  0  0  0  0  0  0  0
   -6.1090  -26.1121   25.0087 C   0  0  0  0  0  0  0  0  0  0  0  0
   -4.4309  -20.6009   26.8885 C   0  0  0  0  0  0  0  0  0  0  0  0
   -4.5515  -19.2886   26.3555 C   0  0  0  0  0  0  0  0  0  0  0  0
   -3.5195  -18.4753   26.6212 N   0  0  0  0  0  0  0  0  0  0  0  0
   -2.7502  -19.2189   27.4434 N   0  0  0  0  0  0  0  0  0  0  0  0
   -1.5905  -18.6072   28.0766 C   0  0  0  0  0  0  0  0  0  0  0  0
   -1.9822  -17.4515   29.0045 C   0  0  0  0  0  0  0  0  0  0  0  0
   -2.3438  -18.1331   30.3193 C   0  0  0  0  0  0  0  0  0  0  0  0
   -1.4663  -19.3809   30.3887 C   0  0  0  0  0  0  0  0  0  0  0  0
   -0.7799  -19.4963   29.0272 C   0  0  0  0  0  0  0  0  0  0  0  0
   -3.2724  -20.4804   27.6380 C   0  0  0  0  0  0  0  0  0  0  0  0
   -6.6095  -23.6001   25.5861 H   0  0  0  0  0  0  0  0  0  0  0  0
   -6.6483  -24.0374   27.3114 H   0  0  0  0  0  0  0  0  0  0  0  0
   -4.2598  -25.6129   27.8180 H   0  0  0  0  0  0  0  0  0  0  0  0
   -3.6189  -27.9790   27.3117 H   0  0  0  0  0  0  0  0  0  0  0  0
   -5.2440  -30.4872   23.5972 H   0  0  0  0  0  0  0  0  0  0  0  0
   -6.8008  -28.3114   22.9950 H   0  0  0  0  0  0  0  0  0  0  0  0
   -6.8239  -25.6375   24.3420 H   0  0  0  0  0  0  0  0  0  0  0  0
   -5.3894  -18.9252   25.7692 H   0  0  0  0  0  0  0  0  0  0  0  0
   -0.9557  -18.2715   27.2528 H   0  0  0  0  0  0  0  0  0  0  0  0
   -1.1164  -16.7980   29.1672 H   0  0  0  0  0  0  0  0  0  0  0  0
   -2.8014  -16.8301   28.6303 H   0  0  0  0  0  0  0  0  0  0  0  0
   -2.1859  -17.4717   31.1767 H   0  0  0  0  0  0  0  0  0  0  0  0
   -3.4012  -18.4229   30.3170 H   0  0  0  0  0  0  0  0  0  0  0  0
   -0.7238  -19.3039   31.1901 H   0  0  0  0  0  0  0  0  0  0  0  0
   -2.0799  -20.2638   30.5978 H   0  0  0  0  0  0  0  0  0  0  0  0
    0.2352  -19.0872   29.1151 H   0  0  0  0  0  0  0  0  0  0  0  0
   -0.6743  -20.5346   28.7032 H   0  0  0  0  0  0  0  0  0  0  0  0
   -2.8036  -21.1878   28.3068 H   0  0  0  0  0  0  0  0  0  0  0  0
  1  2  2  0
  2  3  1  0
  3  4  1  0
  4  5  1  0
  5  6  1  0
  6  7  2  0
  7  8  1  0
  8  9  1  0
  9 10  2  0
 10 11  1  0
 11 12  2  0
 12 13  1  0
  2 14  1  0
 14 15  1  0
 15 16  2  0
 16 17  1  0
 17 18  1  0
 18 19  1  0
 19 20  1  0
 20 21  1  0
 21 22  1  0
 17 23  1  0
 13  5  2  0
 23 14  2  0
 12  8  1  0
 22 18  1  0
  4 24  1  0
  4 25  1  0
  6 26  1  0
  7 27  1  0
 10 28  1  0
 11 29  1  0
 13 30  1  0
 15 31  1  0
 18 32  1  0
 19 33  1  0
 19 34  1  0
 20 35  1  0
 20 36  1  0
 21 37  1  0
 21 38  1  0
 22 39  1  0
 22 40  1  0
 23 41  1  0
M  END
>  <Energy>  (903) 
48.052119327367564

>  <compound_id>  (903) 
46843

>  <target_id>  (903) 
1

>  <reference_id>  (903) 
122

>  <inspiration_ids>  (903) 
[122, 68]

>  <energy_score>  (903) 
-24.60597386555162

>  <distance_score>  (903) 
18.389200636531175

>  <path>  (903) 
/opt/xchem-fragalysis-2/maxwin/BulkDock/SCRATCH/511023/C46843-P122/C46843-P122.minimised.mol

>  <scratch_subdir>  (903) 
/opt/xchem-fragalysis-2/maxwin/BulkDock/SCRATCH/511023/C46843-P122

>  <fragmenstein_runtime>  (903) 
23.644481897354126

>  <fragmenstein_outcome>  (903) 
too moved

>  <fragmenstein_mode>  (903) 
expansion

>  <fragmenstein_error>  (903) 


$$$$
C46843-P68
     RDKit          3D

 41 44  0  0  0  0  0  0  0  0999 V2000
    3.1811   -6.9385   13.7298 O   0  0  0  0  0  0  0  0  0  0  0  0
    4.1208   -7.7260   13.8672 C   0  0  0  0  0  0  0  0  0  0  0  0
    3.7796   -9.2163   13.7225 O   0  0  0  0  0  0  0  0  0  0  0  0
    2.3116   -9.6682   13.6784 C   0  0  0  0  0  0  0  0  0  0  0  0
    1.7519  -11.2531   13.9472 C   0  0  0  0  0  0  0  0  0  0  0  0
    2.3335  -12.4073   13.2233 C   0  0  0  0  0  0  0  0  0  0  0  0
    1.6491  -13.5660   13.0633 C   0  0  0  0  0  0  0  0  0  0  0  0
    0.3662  -13.7129   13.5848 N   0  0  0  0  0  0  0  0  0  0  0  0
   -0.5732  -14.6311   13.2356 N   0  0  0  0  0  0  0  0  0  0  0  0
   -1.6372  -14.3408   13.9862 C   0  0  0  0  0  0  0  0  0  0  0  0
   -1.4125  -13.2256   14.8199 C   0  0  0  0  0  0  0  0  0  0  0  0
   -0.1640  -12.7565   14.4497 C   0  0  0  0  0  0  0  0  0  0  0  0
    0.5813  -11.5150   14.6270 C   0  0  0  0  0  0  0  0  0  0  0  0
    5.8055   -7.1362   14.3629 C   0  0  0  0  0  0  0  0  0  0  0  0
    6.9872   -7.5467   14.2514 C   0  0  0  0  0  0  0  0  0  0  0  0
    8.1228   -6.6957   14.8566 N   0  0  0  0  0  0  0  0  0  0  0  0
    7.5892   -5.6441   15.7371 N   0  0  0  0  0  0  0  0  0  0  0  0
    8.4578   -3.9116   15.4753 C   0  0  0  0  0  0  0  0  0  0  0  0
    7.7898   -2.5649   14.8676 C   0  0  0  0  0  0  0  0  0  0  0  0
    8.7013   -1.3754   15.2412 C   0  0  0  0  0  0  0  0  0  0  0  0
   10.1657   -1.8442   15.2260 C   0  0  0  0  0  0  0  0  0  0  0  0
   10.2126   -3.3784   15.3696 C   0  0  0  0  0  0  0  0  0  0  0  0
    6.2812   -6.2461   15.8336 C   0  0  0  0  0  0  0  0  0  0  0  0
    1.9837   -9.4196   12.6624 H   0  0  0  0  0  0  0  0  0  0  0  0
    1.7774   -9.0273   14.3889 H   0  0  0  0  0  0  0  0  0  0  0  0
    3.3197  -12.2820   12.7857 H   0  0  0  0  0  0  0  0  0  0  0  0
    2.0193  -14.3974   12.4783 H   0  0  0  0  0  0  0  0  0  0  0  0
   -2.5281  -14.9487   13.8908 H   0  0  0  0  0  0  0  0  0  0  0  0
   -2.1182  -12.7482   15.4840 H   0  0  0  0  0  0  0  0  0  0  0  0
    0.0661  -10.7054   15.1376 H   0  0  0  0  0  0  0  0  0  0  0  0
    7.1282   -7.9562   13.2467 H   0  0  0  0  0  0  0  0  0  0  0  0
    8.9096   -4.4732   14.6672 H   0  0  0  0  0  0  0  0  0  0  0  0
    6.7329   -2.4022   15.0170 H   0  0  0  0  0  0  0  0  0  0  0  0
    7.8361   -2.5181   13.8010 H   0  0  0  0  0  0  0  0  0  0  0  0
    8.4649   -0.9545   16.2122 H   0  0  0  0  0  0  0  0  0  0  0  0
    8.5466   -0.5268   14.5670 H   0  0  0  0  0  0  0  0  0  0  0  0
   10.6970   -1.5431   14.3208 H   0  0  0  0  0  0  0  0  0  0  0  0
   10.7145   -1.3689   16.0475 H   0  0  0  0  0  0  0  0  0  0  0  0
   10.7300   -3.8147   14.5061 H   0  0  0  0  0  0  0  0  0  0  0  0
   10.8210   -3.6519   16.2442 H   0  0  0  0  0  0  0  0  0  0  0  0
    5.6257   -5.9182   16.6485 H   0  0  0  0  0  0  0  0  0  0  0  0
  1  2  2  0
  2  3  1  0
  3  4  1  0
  4  5  1  0
  5  6  1  0
  6  7  2  0
  7  8  1  0
  8  9  1  0
  9 10  2  0
 10 11  1  0
 11 12  2  0
 12 13  1  0
  2 14  1  0
 14 15  1  0
 15 16  2  0
 16 17  1  0
 17 18  1  0
 18 19  1  0
 19 20  1  0
 20 21  1  0
 21 22  1  0
 17 23  1  0
 13  5  2  0
 23 14  2  0
 12  8  1  0
 22 18  1  0
  4 24  1  0
  4 25  1  0
  6 26  1  0
  7 27  1  0
 10 28  1  0
 11 29  1  0
 13 30  1  0
 15 31  1  0
 18 32  1  0
 19 33  1  0
 19 34  1  0
 20 35  1  0
 20 36  1  0
 21 37  1  0
 21 38  1  0
 22 39  1  0
 22 40  1  0
 23 41  1  0
M  END
>  <Energy>  (904) 
438.5518212876197

>  <compound_id>  (904) 
46843

>  <target_id>  (904) 
1

>  <reference_id>  (904) 
68

>  <inspiration_ids>  (904) 
[122, 68]

>  <energy_score>  (904) 
365.89372809470206

>  <distance_score>  (904) 
21.2493619630625

>  <path>  (904) 
/opt/xchem-fragalysis-2/maxwin/BulkDock/SCRATCH/511023/C46843-P68/C46843-P68.minimised.mol

>  <scratch_subdir>  (904) 
/opt/xchem-fragalysis-2/maxwin/BulkDock/SCRATCH/511023/C46843-P68

>  <fragmenstein_runtime>  (904) 
19.10377335548401

>  <fragmenstein_outcome>  (904) 
too moved

>  <fragmenstein_mode>  (904) 
expansion

>  <fragmenstein_error>  (904) 


$$$$
C46845-P122
     RDKit          3D

 40 43  0  0  0  0  0  0  0  0999 V2000
   -2.3420  -14.7643   12.5592 O   0  0  0  0  0  0  0  0  0  0  0  0
   -1.2419  -15.6889   12.3811 S   0  0  0  0  0  0  0  0  0  0  0  0
   -0.7917  -16.0687   11.0592 O   0  0  0  0  0  0  0  0  0  0  0  0
   -1.6938  -17.1727   13.2328 N   0  0  0  0  0  0  0  0  0  0  0  0
   -2.8737  -17.9591   12.7570 C   0  0  0  0  0  0  0  0  0  0  0  0
   -4.2377  -17.5582   13.0991 C   0  0  0  0  0  0  0  0  0  0  0  0
   -5.2650  -18.4184   12.9353 C   0  0  0  0  0  0  0  0  0  0  0  0
   -5.0518  -19.7265   12.4958 N   0  0  0  0  0  0  0  0  0  0  0  0
   -5.9894  -20.7046   12.3798 N   0  0  0  0  0  0  0  0  0  0  0  0
   -5.3003  -21.8111   12.1084 C   0  0  0  0  0  0  0  0  0  0  0  0
   -3.9247  -21.5541   11.9598 C   0  0  0  0  0  0  0  0  0  0  0  0
   -3.7618  -20.1984   12.2111 C   0  0  0  0  0  0  0  0  0  0  0  0
   -2.6550  -19.2372   12.3331 C   0  0  0  0  0  0  0  0  0  0  0  0
    0.2115  -14.7843   13.0790 C   0  0  0  0  0  0  0  0  0  0  0  0
    1.5495  -14.7482   12.6761 C   0  0  0  0  0  0  0  0  0  0  0  0
    2.1854  -13.7513   13.4389 C   0  0  0  0  0  0  0  0  0  0  0  0
    1.3407  -13.1723   14.2876 N   0  0  0  0  0  0  0  0  0  0  0  0
    0.1546  -13.8154   14.0728 N   0  0  0  0  0  0  0  0  0  0  0  0
   -0.9981  -13.4331   14.8827 C   0  0  0  0  0  0  0  0  0  0  0  0
   -1.6423  -12.1284   14.3820 C   0  0  0  0  0  0  0  0  0  0  0  0
   -1.8355  -11.2603   15.6196 C   0  0  0  0  0  0  0  0  0  0  0  0
   -0.7047  -11.6799   16.5414 C   0  0  0  0  0  0  0  0  0  0  0  0
   -0.6663  -13.1914   16.3691 C   0  0  0  0  0  0  0  0  0  0  0  0
   -1.9103  -16.8542   14.1849 H   0  0  0  0  0  0  0  0  0  0  0  0
   -4.4063  -16.5477   13.4572 H   0  0  0  0  0  0  0  0  0  0  0  0
   -6.2918  -18.1591   13.1574 H   0  0  0  0  0  0  0  0  0  0  0  0
   -5.8289  -22.7488   11.9954 H   0  0  0  0  0  0  0  0  0  0  0  0
   -3.1753  -22.2813   11.6941 H   0  0  0  0  0  0  0  0  0  0  0  0
   -1.6342  -19.5584   12.1629 H   0  0  0  0  0  0  0  0  0  0  0  0
    1.9782  -15.3526   11.8880 H   0  0  0  0  0  0  0  0  0  0  0  0
    3.2165  -13.4222   13.4035 H   0  0  0  0  0  0  0  0  0  0  0  0
   -1.7096  -14.2626   14.8441 H   0  0  0  0  0  0  0  0  0  0  0  0
   -2.5993  -12.3145   13.8839 H   0  0  0  0  0  0  0  0  0  0  0  0
   -0.9989  -11.6087   13.6615 H   0  0  0  0  0  0  0  0  0  0  0  0
   -2.8035  -11.4814   16.0848 H   0  0  0  0  0  0  0  0  0  0  0  0
   -1.8082  -10.1923   15.3848 H   0  0  0  0  0  0  0  0  0  0  0  0
   -0.8843  -11.3861   17.5795 H   0  0  0  0  0  0  0  0  0  0  0  0
    0.2408  -11.2312   16.2160 H   0  0  0  0  0  0  0  0  0  0  0  0
   -1.4547  -13.6386   16.9885 H   0  0  0  0  0  0  0  0  0  0  0  0
    0.2850  -13.6226   16.6958 H   0  0  0  0  0  0  0  0  0  0  0  0
  1  2  2  0
  2  3  2  0
  2  4  1  0
  4  5  1  0
  5  6  1  0
  6  7  2  0
  7  8  1  0
  8  9  1  0
  9 10  2  0
 10 11  1  0
 11 12  2  0
 12 13  1  0
  2 14  1  0
 14 15  2  0
 15 16  1  0
 16 17  2  0
 17 18  1  0
 18 19  1  0
 19 20  1  0
 20 21  1  0
 21 22  1  0
 22 23  1  0
 13  5  2  0
 18 14  1  0
 23 19  1  0
 12  8  1  0
  4 24  1  0
  6 25  1  0
  7 26  1  0
 10 27  1  0
 11 28  1  0
 13 29  1  0
 15 30  1  0
 16 31  1  0
 19 32  1  0
 20 33  1  0
 20 34  1  0
 21 35  1  0
 21 36  1  0
 22 37  1  0
 22 38  1  0
 23 39  1  0
 23 40  1  0
M  END
>  <Energy>  (905) 
-22.636239026985383

>  <compound_id>  (905) 
46845

>  <target_id>  (905) 
1

>  <reference_id>  (905) 
122

>  <inspiration_ids>  (905) 
[122, 68]

>  <energy_score>  (905) 
-42.983946514259344

>  <distance_score>  (905) 
19.243564072977506

>  <path>  (905) 
/opt/xchem-fragalysis-2/maxwin/BulkDock/SCRATCH/511023/C46845-P122/C46845-P122.minimised.mol

>  <scratch_subdir>  (905) 
/opt/xchem-fragalysis-2/maxwin/BulkDock/SCRATCH/511023/C46845-P122

>  <fragmenstein_runtime>  (905) 
15.861363410949707

>  <fragmenstein_outcome>  (905) 
too moved

>  <fragmenstein_mode>  (905) 
expansion

>  <fragmenstein_error>  (905) 


$$$$
C46845-P68
     RDKit          3D

 40 43  0  0  0  0  0  0  0  0999 V2000
    3.7353   -9.2606   13.3922 O   0  0  0  0  0  0  0  0  0  0  0  0
    4.8260   -9.8260   14.2020 S   0  0  0  0  0  0  0  0  0  0  0  0
    4.0791  -10.5544   15.2785 O   0  0  0  0  0  0  0  0  0  0  0  0
    5.3554  -11.5122   13.4794 N   0  0  0  0  0  0  0  0  0  0  0  0
    4.4069  -12.7812   13.9481 C   0  0  0  0  0  0  0  0  0  0  0  0
    2.9330  -12.7422   14.0276 C   0  0  0  0  0  0  0  0  0  0  0  0
    2.2440  -13.7265   14.6510 C   0  0  0  0  0  0  0  0  0  0  0  0
    2.8996  -14.8383   15.1697 N   0  0  0  0  0  0  0  0  0  0  0  0
    2.3753  -15.8074   15.9425 N   0  0  0  0  0  0  0  0  0  0  0  0
    3.3326  -16.7358   16.0401 C   0  0  0  0  0  0  0  0  0  0  0  0
    4.5351  -16.3022   15.4586 C   0  0  0  0  0  0  0  0  0  0  0  0
    4.2637  -15.0364   14.9629 C   0  0  0  0  0  0  0  0  0  0  0  0
    5.0179  -13.9464   14.3368 C   0  0  0  0  0  0  0  0  0  0  0  0
    6.1710   -7.8028   14.7828 C   0  0  0  0  0  0  0  0  0  0  0  0
    5.4843   -7.4016   13.7527 C   0  0  0  0  0  0  0  0  0  0  0  0
    6.7789   -7.5338   14.0206 C   0  0  0  0  0  0  0  0  0  0  0  0
    7.3906   -6.5819   15.2093 N   0  0  0  0  0  0  0  0  0  0  0  0
    6.3948   -6.6695   16.4187 N   0  0  0  0  0  0  0  0  0  0  0  0
    7.1884   -6.3916   18.3389 C   0  0  0  0  0  0  0  0  0  0  0  0
    6.8860   -7.6858   19.7688 C   0  0  0  0  0  0  0  0  0  0  0  0
    8.0112   -8.6150   20.3779 C   0  0  0  0  0  0  0  0  0  0  0  0
    9.3413   -7.9413   20.1233 C   0  0  0  0  0  0  0  0  0  0  0  0
    9.1255   -6.1007   19.4699 C   0  0  0  0  0  0  0  0  0  0  0  0
    6.2884  -11.7018   13.8656 H   0  0  0  0  0  0  0  0  0  0  0  0
    2.4294  -11.8692   13.6253 H   0  0  0  0  0  0  0  0  0  0  0  0
    1.1724  -13.6937   14.7926 H   0  0  0  0  0  0  0  0  0  0  0  0
    3.1282  -17.6727   16.5453 H   0  0  0  0  0  0  0  0  0  0  0  0
    5.4813  -16.8221   15.4301 H   0  0  0  0  0  0  0  0  0  0  0  0
    6.0955  -14.0545   14.2722 H   0  0  0  0  0  0  0  0  0  0  0  0
    4.3944   -7.3052   13.8781 H   0  0  0  0  0  0  0  0  0  0  0  0
    7.3782   -7.5939   13.0408 H   0  0  0  0  0  0  0  0  0  0  0  0
    6.4798   -5.5666   18.5229 H   0  0  0  0  0  0  0  0  0  0  0  0
    6.8241   -7.2748   20.7695 H   0  0  0  0  0  0  0  0  0  0  0  0
    5.8879   -8.1814   19.6834 H   0  0  0  0  0  0  0  0  0  0  0  0
    7.8447   -8.7665   21.4557 H   0  0  0  0  0  0  0  0  0  0  0  0
    8.0141   -9.6508   20.0111 H   0  0  0  0  0  0  0  0  0  0  0  0
   10.2052   -8.1096   20.7951 H   0  0  0  0  0  0  0  0  0  0  0  0
    9.6793   -8.7025   19.4733 H   0  0  0  0  0  0  0  0  0  0  0  0
    9.4893   -5.2582   20.1650 H   0  0  0  0  0  0  0  0  0  0  0  0
   10.0107   -5.7272   18.9059 H   0  0  0  0  0  0  0  0  0  0  0  0
  1  2  2  0
  2  3  2  0
  2  4  1  0
  4  5  1  0
  5  6  1  0
  6  7  2  0
  7  8  1  0
  8  9  1  0
  9 10  2  0
 10 11  1  0
 11 12  2  0
 12 13  1  0
  2 14  1  0
 14 15  2  0
 15 16  1  0
 16 17  2  0
 17 18  1  0
 18 19  1  0
 19 20  1  0
 20 21  1  0
 21 22  1  0
 22 23  1  0
 13  5  2  0
 18 14  1  0
 23 19  1  0
 12  8  1  0
  4 24  1  0
  6 25  1  0
  7 26  1  0
 10 27  1  0
 11 28  1  0
 13 29  1  0
 15 30  1  0
 16 31  1  0
 19 32  1  0
 20 33  1  0
 20 34  1  0
 21 35  1  0
 21 36  1  0
 22 37  1  0
 22 38  1  0
 23 39  1  0
 23 40  1  0
M  END
>  <Energy>  (906) 
1184.497830965621

>  <compound_id>  (906) 
46845

>  <target_id>  (906) 
1

>  <reference_id>  (906) 
68

>  <inspiration_ids>  (906) 
[122, 68]

>  <energy_score>  (906) 
1164.1501234783414

>  <distance_score>  (906) 
21.17679154234039

>  <path>  (906) 
/opt/xchem-fragalysis-2/maxwin/BulkDock/SCRATCH/511023/C46845-P68/C46845-P68.minimised.mol

>  <scratch_subdir>  (906) 
/opt/xchem-fragalysis-2/maxwin/BulkDock/SCRATCH/511023/C46845-P68

>  <fragmenstein_runtime>  (906) 
20.62407922744751

>  <fragmenstein_outcome>  (906) 
too moved

>  <fragmenstein_mode>  (906) 
expansion

>  <fragmenstein_error>  (906) 


$$$$
C46846-P122
     RDKit          3D

 37 39  0  0  0  0  0  0  0  0999 V2000
    1.6263  -25.7544   21.8636 F   0  0  0  0  0  0  0  0  0  0  0  0
    1.8677  -25.0493   20.7217 C   0  0  0  0  0  0  0  0  0  0  0  0
    3.2163  -24.9025   20.6610 F   0  0  0  0  0  0  0  0  0  0  0  0
    1.1834  -23.7078   20.8239 C   0  0  0  0  0  0  0  0  0  0  0  0
    0.8364  -23.1946   19.5136 N   0  0  0  0  0  0  0  0  0  0  0  0
    1.7719  -22.4915   18.8265 N   0  0  0  0  0  0  0  0  0  0  0  0
    1.1394  -22.0883   17.7278 C   0  0  0  0  0  0  0  0  0  0  0  0
   -0.1777  -22.5987   17.6820 C   0  0  0  0  0  0  0  0  0  0  0  0
   -0.3718  -23.3528   18.8455 C   0  0  0  0  0  0  0  0  0  0  0  0
   -1.6792  -24.0258   19.4052 C   0  0  0  0  0  0  0  0  0  0  0  0
   -1.7783  -25.9116   19.6307 S   0  0  0  0  0  0  0  0  0  0  0  0
   -3.5827  -26.2023   20.1151 C   0  0  0  0  0  0  0  0  0  0  0  0
   -4.0258  -27.6024   20.5933 C   0  0  0  0  0  0  0  0  0  0  0  0
   -5.0069  -27.7080   21.5980 C   0  0  0  0  0  0  0  0  0  0  0  0
   -5.5348  -28.9526   22.0050 C   0  0  0  0  0  0  0  0  0  0  0  0
   -5.1326  -30.1473   21.4326 C   0  0  0  0  0  0  0  0  0  0  0  0
   -5.6656  -31.3091   21.8587 N   0  0  0  0  0  0  0  0  0  0  0  0
   -5.2572  -32.4504   21.2682 C   0  0  0  0  0  0  0  0  0  0  0  0
   -4.3212  -32.4915   20.2541 C   0  0  0  0  0  0  0  0  0  0  0  0
   -3.7690  -31.2854   19.8234 C   0  0  0  0  0  0  0  0  0  0  0  0
   -4.1659  -30.0731   20.4108 C   0  0  0  0  0  0  0  0  0  0  0  0
   -3.6309  -28.8117   20.0007 C   0  0  0  0  0  0  0  0  0  0  0  0
    1.5430  -25.6565   19.8721 H   0  0  0  0  0  0  0  0  0  0  0  0
    1.8277  -22.9692   21.3131 H   0  0  0  0  0  0  0  0  0  0  0  0
    0.2616  -23.7823   21.4083 H   0  0  0  0  0  0  0  0  0  0  0  0
    1.6518  -21.4492   17.0204 H   0  0  0  0  0  0  0  0  0  0  0  0
   -0.9145  -22.4168   16.9126 H   0  0  0  0  0  0  0  0  0  0  0  0
   -2.4962  -23.7611   18.7244 H   0  0  0  0  0  0  0  0  0  0  0  0
   -1.8971  -23.5760   20.3799 H   0  0  0  0  0  0  0  0  0  0  0  0
   -3.7850  -25.4818   20.9151 H   0  0  0  0  0  0  0  0  0  0  0  0
   -4.1953  -25.9340   19.2478 H   0  0  0  0  0  0  0  0  0  0  0  0
   -5.3899  -26.8124   22.0843 H   0  0  0  0  0  0  0  0  0  0  0  0
   -6.2905  -28.9866   22.7878 H   0  0  0  0  0  0  0  0  0  0  0  0
   -5.7155  -33.3555   21.6529 H   0  0  0  0  0  0  0  0  0  0  0  0
   -4.0214  -33.4353   19.8161 H   0  0  0  0  0  0  0  0  0  0  0  0
   -3.0265  -31.2942   19.0304 H   0  0  0  0  0  0  0  0  0  0  0  0
   -2.8995  -28.7907   19.1939 H   0  0  0  0  0  0  0  0  0  0  0  0
  1  2  1  0
  2  3  1  0
  2  4  1  0
  4  5  1  0
  5  6  1  0
  6  7  2  0
  7  8  1  0
  8  9  2  0
  9 10  1  0
 10 11  1  0
 11 12  1  0
 12 13  1  0
 13 14  2  0
 14 15  1  0
 15 16  2  0
 16 17  1  0
 17 18  2  0
 18 19  1  0
 19 20  2  0
 20 21  1  0
 21 22  2  0
  9  5  1  0
 22 13  1  0
 21 16  1  0
  2 23  1  0
  4 24  1  0
  4 25  1  0
  7 26  1  0
  8 27  1  0
 10 28  1  0
 10 29  1  0
 12 30  1  0
 12 31  1  0
 14 32  1  0
 15 33  1  0
 18 34  1  0
 19 35  1  0
 20 36  1  0
 22 37  1  0
M  END
>  <Energy>  (907) 
52.611664700035675

>  <compound_id>  (907) 
46846

>  <target_id>  (907) 
1

>  <reference_id>  (907) 
122

>  <inspiration_ids>  (907) 
[122, 68]

>  <energy_score>  (907) 
-4.8271282079560365

>  <distance_score>  (907) 
15.329532455311318

>  <path>  (907) 
/opt/xchem-fragalysis-2/maxwin/BulkDock/SCRATCH/511023/C46846-P122/C46846-P122.minimised.mol

>  <scratch_subdir>  (907) 
/opt/xchem-fragalysis-2/maxwin/BulkDock/SCRATCH/511023/C46846-P122

>  <fragmenstein_runtime>  (907) 
20.88591170310974

>  <fragmenstein_outcome>  (907) 
too moved

>  <fragmenstein_mode>  (907) 
expansion

>  <fragmenstein_error>  (907) 


$$$$
C46846-P68
     RDKit          3D

 37 39  0  0  0  0  0  0  0  0999 V2000
  -13.0707  -30.8380   16.7738 F   0  0  0  0  0  0  0  0  0  0  0  0
  -12.7447  -31.2857   18.0211 C   0  0  0  0  0  0  0  0  0  0  0  0
  -13.8402  -31.9805   18.4494 F   0  0  0  0  0  0  0  0  0  0  0  0
  -12.5431  -30.0941   18.9334 C   0  0  0  0  0  0  0  0  0  0  0  0
  -11.4333  -30.2325   19.8773 N   0  0  0  0  0  0  0  0  0  0  0  0
  -10.2787  -30.6784   19.5195 N   0  0  0  0  0  0  0  0  0  0  0  0
   -9.4923  -30.8357   20.5319 C   0  0  0  0  0  0  0  0  0  0  0  0
  -10.2770  -30.7004   21.6422 C   0  0  0  0  0  0  0  0  0  0  0  0
  -11.5149  -30.7660   21.1106 C   0  0  0  0  0  0  0  0  0  0  0  0
  -12.6366  -31.6722   21.5240 C   0  0  0  0  0  0  0  0  0  0  0  0
  -12.1358  -33.3943   21.3002 S   0  0  0  0  0  0  0  0  0  0  0  0
  -11.9029  -33.8744   23.0448 C   0  0  0  0  0  0  0  0  0  0  0  0
  -10.9978  -35.0700   23.1259 C   0  0  0  0  0  0  0  0  0  0  0  0
  -11.3959  -36.2924   22.5853 C   0  0  0  0  0  0  0  0  0  0  0  0
  -10.5054  -37.3611   22.5125 C   0  0  0  0  0  0  0  0  0  0  0  0
   -9.1989  -37.2373   22.9254 C   0  0  0  0  0  0  0  0  0  0  0  0
   -8.3728  -38.2729   22.7338 N   0  0  0  0  0  0  0  0  0  0  0  0
   -7.0719  -38.0929   23.0132 C   0  0  0  0  0  0  0  0  0  0  0  0
   -6.5509  -36.9110   23.4833 C   0  0  0  0  0  0  0  0  0  0  0  0
   -7.4302  -35.8718   23.7531 C   0  0  0  0  0  0  0  0  0  0  0  0
   -8.7896  -36.0126   23.4745 C   0  0  0  0  0  0  0  0  0  0  0  0
   -9.7071  -34.9602   23.6417 C   0  0  0  0  0  0  0  0  0  0  0  0
  -11.9140  -31.9833   17.9294 H   0  0  0  0  0  0  0  0  0  0  0  0
  -13.4527  -29.9429   19.5131 H   0  0  0  0  0  0  0  0  0  0  0  0
  -12.4022  -29.1571   18.3859 H   0  0  0  0  0  0  0  0  0  0  0  0
   -8.4501  -31.0042   20.2515 H   0  0  0  0  0  0  0  0  0  0  0  0
  -10.1055  -31.1200   22.6276 H   0  0  0  0  0  0  0  0  0  0  0  0
  -13.5555  -31.5070   20.9607 H   0  0  0  0  0  0  0  0  0  0  0  0
  -12.8750  -31.5684   22.5690 H   0  0  0  0  0  0  0  0  0  0  0  0
  -11.4655  -33.0452   23.6057 H   0  0  0  0  0  0  0  0  0  0  0  0
  -12.8742  -34.1073   23.4938 H   0  0  0  0  0  0  0  0  0  0  0  0
  -12.3977  -36.4179   22.1784 H   0  0  0  0  0  0  0  0  0  0  0  0
  -10.8318  -38.3004   22.0729 H   0  0  0  0  0  0  0  0  0  0  0  0
   -6.4483  -38.9575   22.8374 H   0  0  0  0  0  0  0  0  0  0  0  0
   -5.4911  -36.8172   23.6753 H   0  0  0  0  0  0  0  0  0  0  0  0
   -7.0433  -34.9465   24.1594 H   0  0  0  0  0  0  0  0  0  0  0  0
   -9.3875  -34.0285   24.0992 H   0  0  0  0  0  0  0  0  0  0  0  0
  1  2  1  0
  2  3  1  0
  2  4  1  0
  4  5  1  0
  5  6  1  0
  6  7  2  0
  7  8  1  0
  8  9  2  0
  9 10  1  0
 10 11  1  0
 11 12  1  0
 12 13  1  0
 13 14  2  0
 14 15  1  0
 15 16  2  0
 16 17  1  0
 17 18  2  0
 18 19  1  0
 19 20  2  0
 20 21  1  0
 21 22  2  0
  9  5  1  0
 22 13  1  0
 21 16  1  0
  2 23  1  0
  4 24  1  0
  4 25  1  0
  7 26  1  0
  8 27  1  0
 10 28  1  0
 10 29  1  0
 12 30  1  0
 12 31  1  0
 14 32  1  0
 15 33  1  0
 18 34  1  0
 19 35  1  0
 20 36  1  0
 22 37  1  0
M  END
>  <Energy>  (908) 
83.078329782191759

>  <compound_id>  (908) 
46846

>  <target_id>  (908) 
1

>  <reference_id>  (908) 
68

>  <inspiration_ids>  (908) 
[122, 68]

>  <energy_score>  (908) 
22.00920049209344

>  <distance_score>  (908) 
20.693677885532452

>  <path>  (908) 
/opt/xchem-fragalysis-2/maxwin/BulkDock/SCRATCH/511023/C46846-P68/C46846-P68.minimised.mol

>  <scratch_subdir>  (908) 
/opt/xchem-fragalysis-2/maxwin/BulkDock/SCRATCH/511023/C46846-P68

>  <fragmenstein_runtime>  (908) 
10.554905652999878

>  <fragmenstein_outcome>  (908) 
too moved

>  <fragmenstein_mode>  (908) 
expansion

>  <fragmenstein_error>  (908) 


$$$$
C46847-P122
     RDKit          3D

 39 41  0  0  0  0  0  0  0  0999 V2000
    4.5741  -18.0783   12.3474 C   0  0  0  0  0  0  0  0  0  0  0  0
    5.4891  -17.7810   13.4262 N   0  0  0  0  0  0  0  0  0  0  0  0
    6.1739  -16.5995   13.4320 N   0  0  0  0  0  0  0  0  0  0  0  0
    7.1327  -16.7848   14.3358 C   0  0  0  0  0  0  0  0  0  0  0  0
    7.0112  -18.0365   14.9608 C   0  0  0  0  0  0  0  0  0  0  0  0
    5.8758  -18.6540   14.4224 C   0  0  0  0  0  0  0  0  0  0  0  0
    5.2977  -20.0804   14.6888 C   0  0  0  0  0  0  0  0  0  0  0  0
    3.7456  -20.4111   14.9905 C   0  0  0  0  0  0  0  0  0  0  0  0
    3.5047  -21.6085   15.9271 O   0  0  0  0  0  0  0  0  0  0  0  0
    2.3898  -22.4753   15.8108 C   0  0  0  0  0  0  0  0  0  0  0  0
    1.6621  -22.5001   14.8258 O   0  0  0  0  0  0  0  0  0  0  0  0
    2.2071  -23.4257   17.0730 C   0  0  0  0  0  0  0  0  0  0  0  0
    1.0235  -24.4883   17.2829 C   0  0  0  0  0  0  0  0  0  0  0  0
    0.2711  -25.0812   16.2667 C   0  0  0  0  0  0  0  0  0  0  0  0
   -0.6683  -26.1306   16.5328 C   0  0  0  0  0  0  0  0  0  0  0  0
   -0.9052  -26.6691   17.8000 C   0  0  0  0  0  0  0  0  0  0  0  0
   -1.7849  -27.6913   17.9789 N   0  0  0  0  0  0  0  0  0  0  0  0
   -1.9527  -28.1932   19.2232 C   0  0  0  0  0  0  0  0  0  0  0  0
   -1.2794  -27.7069   20.3238 C   0  0  0  0  0  0  0  0  0  0  0  0
   -0.3832  -26.6478   20.1320 C   0  0  0  0  0  0  0  0  0  0  0  0
   -0.1692  -26.1005   18.8509 C   0  0  0  0  0  0  0  0  0  0  0  0
    0.7684  -25.0310   18.5818 C   0  0  0  0  0  0  0  0  0  0  0  0
    4.8306  -17.4643   11.4816 H   0  0  0  0  0  0  0  0  0  0  0  0
    4.6758  -19.1313   12.0740 H   0  0  0  0  0  0  0  0  0  0  0  0
    3.5605  -17.8751   12.6828 H   0  0  0  0  0  0  0  0  0  0  0  0
    7.8788  -16.0165   14.4921 H   0  0  0  0  0  0  0  0  0  0  0  0
    7.6715  -18.4527   15.7102 H   0  0  0  0  0  0  0  0  0  0  0  0
    5.5800  -20.6965   13.8237 H   0  0  0  0  0  0  0  0  0  0  0  0
    5.8734  -20.5070   15.5212 H   0  0  0  0  0  0  0  0  0  0  0  0
    3.2208  -20.6075   14.0505 H   0  0  0  0  0  0  0  0  0  0  0  0
    3.2768  -19.5605   15.4904 H   0  0  0  0  0  0  0  0  0  0  0  0
    3.1318  -24.0125   17.1380 H   0  0  0  0  0  0  0  0  0  0  0  0
    2.1575  -22.7513   17.9367 H   0  0  0  0  0  0  0  0  0  0  0  0
    0.4115  -24.7681   15.2327 H   0  0  0  0  0  0  0  0  0  0  0  0
   -1.2125  -26.5575   15.6908 H   0  0  0  0  0  0  0  0  0  0  0  0
   -2.6624  -29.0110   19.3068 H   0  0  0  0  0  0  0  0  0  0  0  0
   -1.4410  -28.1335   21.3073 H   0  0  0  0  0  0  0  0  0  0  0  0
    0.1599  -26.2560   20.9889 H   0  0  0  0  0  0  0  0  0  0  0  0
    1.3440  -24.6376   19.4219 H   0  0  0  0  0  0  0  0  0  0  0  0
  1  2  1  0
  2  3  1  0
  3  4  2  0
  4  5  1  0
  5  6  2  0
  6  7  1  0
  7  8  1  0
  8  9  1  0
  9 10  1  0
 10 11  2  0
 10 12  1  0
 12 13  1  0
 13 14  2  0
 14 15  1  0
 15 16  2  0
 16 17  1  0
 17 18  2  0
 18 19  1  0
 19 20  2  0
 20 21  1  0
 21 22  2  0
  6  2  1  0
 22 13  1  0
 21 16  1  0
  1 23  1  0
  1 24  1  0
  1 25  1  0
  4 26  1  0
  5 27  1  0
  7 28  1  0
  7 29  1  0
  8 30  1  0
  8 31  1  0
 12 32  1  0
 12 33  1  0
 14 34  1  0
 15 35  1  0
 18 36  1  0
 19 37  1  0
 20 38  1  0
 22 39  1  0
M  END
>  <Energy>  (909) 
97.051231796995737

>  <compound_id>  (909) 
46847

>  <target_id>  (909) 
1

>  <reference_id>  (909) 
122

>  <inspiration_ids>  (909) 
[122, 68]

>  <energy_score>  (909) 
9.398490252128

>  <distance_score>  (909) 
16.07088893199892

>  <path>  (909) 
/opt/xchem-fragalysis-2/maxwin/BulkDock/SCRATCH/511023/C46847-P122/C46847-P122.minimised.mol

>  <scratch_subdir>  (909) 
/opt/xchem-fragalysis-2/maxwin/BulkDock/SCRATCH/511023/C46847-P122

>  <fragmenstein_runtime>  (909) 
15.069581508636475

>  <fragmenstein_outcome>  (909) 
too moved

>  <fragmenstein_mode>  (909) 
expansion

>  <fragmenstein_error>  (909) 


$$$$
C46847-P68
     RDKit          3D

 39 41  0  0  0  0  0  0  0  0999 V2000
    5.4723  -16.7634   24.7184 C   0  0  0  0  0  0  0  0  0  0  0  0
    6.1199  -16.6417   23.4332 N   0  0  0  0  0  0  0  0  0  0  0  0
    6.4883  -15.4044   23.0059 N   0  0  0  0  0  0  0  0  0  0  0  0
    7.1466  -15.6356   21.8710 C   0  0  0  0  0  0  0  0  0  0  0  0
    7.1261  -17.0011   21.5368 C   0  0  0  0  0  0  0  0  0  0  0  0
    6.4167  -17.6549   22.5485 C   0  0  0  0  0  0  0  0  0  0  0  0
    6.1300  -19.1765   22.6688 C   0  0  0  0  0  0  0  0  0  0  0  0
    4.9630  -19.8840   23.5522 C   0  0  0  0  0  0  0  0  0  0  0  0
    4.2185  -21.0158   22.8648 O   0  0  0  0  0  0  0  0  0  0  0  0
    3.2839  -21.8300   23.5414 C   0  0  0  0  0  0  0  0  0  0  0  0
    3.0901  -21.7416   24.7487 O   0  0  0  0  0  0  0  0  0  0  0  0
    2.5410  -22.8504   22.5790 C   0  0  0  0  0  0  0  0  0  0  0  0
    1.5270  -24.0002   23.0390 C   0  0  0  0  0  0  0  0  0  0  0  0
    0.7055  -23.9659   24.1669 C   0  0  0  0  0  0  0  0  0  0  0  0
   -0.2359  -25.0110   24.4523 C   0  0  0  0  0  0  0  0  0  0  0  0
   -0.4340  -26.1345   23.6436 C   0  0  0  0  0  0  0  0  0  0  0  0
   -1.3376  -27.1027   23.9659 N   0  0  0  0  0  0  0  0  0  0  0  0
   -1.4795  -28.1608   23.1331 C   0  0  0  0  0  0  0  0  0  0  0  0
   -0.7591  -28.3049   21.9660 C   0  0  0  0  0  0  0  0  0  0  0  0
    0.1659  -27.3054   21.6445 C   0  0  0  0  0  0  0  0  0  0  0  0
    0.3545  -26.1887   22.4850 C   0  0  0  0  0  0  0  0  0  0  0  0
    1.3017  -25.1336   22.2007 C   0  0  0  0  0  0  0  0  0  0  0  0
    5.8298  -17.6689   25.2131 H   0  0  0  0  0  0  0  0  0  0  0  0
    5.7250  -15.8947   25.3323 H   0  0  0  0  0  0  0  0  0  0  0  0
    4.3934  -16.8054   24.5533 H   0  0  0  0  0  0  0  0  0  0  0  0
    7.5887  -14.8095   21.3307 H   0  0  0  0  0  0  0  0  0  0  0  0
    7.5565  -17.4692   20.6631 H   0  0  0  0  0  0  0  0  0  0  0  0
    7.0697  -19.6083   23.0436 H   0  0  0  0  0  0  0  0  0  0  0  0
    6.0398  -19.5622   21.6544 H   0  0  0  0  0  0  0  0  0  0  0  0
    4.2152  -19.1691   23.8988 H   0  0  0  0  0  0  0  0  0  0  0  0
    5.4355  -20.3299   24.4349 H   0  0  0  0  0  0  0  0  0  0  0  0
    3.3458  -23.3666   22.0398 H   0  0  0  0  0  0  0  0  0  0  0  0
    1.9789  -22.2356   21.8651 H   0  0  0  0  0  0  0  0  0  0  0  0
    0.7738  -23.1286   24.8611 H   0  0  0  0  0  0  0  0  0  0  0  0
   -0.8346  -24.9255   25.3583 H   0  0  0  0  0  0  0  0  0  0  0  0
   -2.2089  -28.9025   23.4432 H   0  0  0  0  0  0  0  0  0  0  0  0
   -0.9012  -29.1671   21.3238 H   0  0  0  0  0  0  0  0  0  0  0  0
    0.7487  -27.4022   20.7312 H   0  0  0  0  0  0  0  0  0  0  0  0
    1.8834  -25.2095   21.2803 H   0  0  0  0  0  0  0  0  0  0  0  0
  1  2  1  0
  2  3  1  0
  3  4  2  0
  4  5  1  0
  5  6  2  0
  6  7  1  0
  7  8  1  0
  8  9  1  0
  9 10  1  0
 10 11  2  0
 10 12  1  0
 12 13  1  0
 13 14  2  0
 14 15  1  0
 15 16  2  0
 16 17  1  0
 17 18  2  0
 18 19  1  0
 19 20  2  0
 20 21  1  0
 21 22  2  0
  6  2  1  0
 22 13  1  0
 21 16  1  0
  1 23  1  0
  1 24  1  0
  1 25  1  0
  4 26  1  0
  5 27  1  0
  7 28  1  0
  7 29  1  0
  8 30  1  0
  8 31  1  0
 12 32  1  0
 12 33  1  0
 14 34  1  0
 15 35  1  0
 18 36  1  0
 19 37  1  0
 20 38  1  0
 22 39  1  0
M  END
>  <Energy>  (910) 
97.18665674242034

>  <compound_id>  (910) 
46847

>  <target_id>  (910) 
1

>  <reference_id>  (910) 
68

>  <inspiration_ids>  (910) 
[122, 68]

>  <energy_score>  (910) 
9.533915197552801

>  <distance_score>  (910) 
15.918892728364337

>  <path>  (910) 
/opt/xchem-fragalysis-2/maxwin/BulkDock/SCRATCH/511023/C46847-P68/C46847-P68.minimised.mol

>  <scratch_subdir>  (910) 
/opt/xchem-fragalysis-2/maxwin/BulkDock/SCRATCH/511023/C46847-P68

>  <fragmenstein_runtime>  (910) 
22.22227382659912

>  <fragmenstein_outcome>  (910) 
too moved

>  <fragmenstein_mode>  (910) 
expansion

>  <fragmenstein_error>  (910) 


$$$$
C46848-P122
     RDKit          3D

 44 46  0  0  0  0  0  0  0  0999 V2000
    2.8908  -26.0344   17.0971 C   0  0  0  0  0  0  0  0  0  0  0  0
    1.9221  -24.9173   16.7043 C   0  0  0  0  0  0  0  0  0  0  0  0
    0.7190  -24.8398   17.7161 C   0  0  0  0  0  0  0  0  0  0  0  0
    0.0183  -26.1032   18.1065 N   0  0  0  0  0  0  0  0  0  0  0  0
   -1.3839  -26.4830   18.0162 C   0  0  0  0  0  0  0  0  0  0  0  0
   -2.3194  -25.9089   17.5318 O   0  0  0  0  0  0  0  0  0  0  0  0
   -1.7765  -27.8110   18.7178 C   0  0  0  0  0  0  0  0  0  0  0  0
   -0.9594  -28.9403   18.7638 C   0  0  0  0  0  0  0  0  0  0  0  0
   -1.4062  -30.1454   19.3691 C   0  0  0  0  0  0  0  0  0  0  0  0
   -2.6657  -30.2943   19.9441 C   0  0  0  0  0  0  0  0  0  0  0  0
   -3.0196  -31.4722   20.5062 N   0  0  0  0  0  0  0  0  0  0  0  0
   -4.2568  -31.5771   21.0437 C   0  0  0  0  0  0  0  0  0  0  0  0
   -5.1732  -30.5450   21.0358 C   0  0  0  0  0  0  0  0  0  0  0  0
   -4.7946  -29.3308   20.4590 C   0  0  0  0  0  0  0  0  0  0  0  0
   -3.5170  -29.1759   19.8960 C   0  0  0  0  0  0  0  0  0  0  0  0
   -3.0691  -27.9592   19.2856 C   0  0  0  0  0  0  0  0  0  0  0  0
    2.7302  -23.6688   16.4940 N   0  0  0  0  0  0  0  0  0  0  0  0
    3.2252  -23.0504   15.2780 C   0  0  0  0  0  0  0  0  0  0  0  0
    3.0458  -23.3370   14.1318 O   0  0  0  0  0  0  0  0  0  0  0  0
    4.1980  -21.9331   15.4949 C   0  0  0  0  0  0  0  0  0  0  0  0
    5.4513  -21.9623   16.1004 C   0  0  0  0  0  0  0  0  0  0  0  0
    6.1423  -20.8066   15.6731 C   0  0  0  0  0  0  0  0  0  0  0  0
    5.3592  -19.9818   14.9816 N   0  0  0  0  0  0  0  0  0  0  0  0
    4.2029  -20.7042   14.8306 N   0  0  0  0  0  0  0  0  0  0  0  0
    3.1728  -20.2197   13.9370 C   0  0  0  0  0  0  0  0  0  0  0  0
    3.7173  -26.1032   16.3809 H   0  0  0  0  0  0  0  0  0  0  0  0
    2.3915  -27.0081   17.1187 H   0  0  0  0  0  0  0  0  0  0  0  0
    3.3253  -25.8479   18.0849 H   0  0  0  0  0  0  0  0  0  0  0  0
    1.5105  -25.1744   15.7204 H   0  0  0  0  0  0  0  0  0  0  0  0
   -0.0390  -24.1594   17.3130 H   0  0  0  0  0  0  0  0  0  0  0  0
    1.0669  -24.4098   18.6594 H   0  0  0  0  0  0  0  0  0  0  0  0
    0.5123  -26.7926   18.6569 H   0  0  0  0  0  0  0  0  0  0  0  0
    0.0246  -28.9320   18.3025 H   0  0  0  0  0  0  0  0  0  0  0  0
   -0.7380  -31.0056   19.3784 H   0  0  0  0  0  0  0  0  0  0  0  0
   -4.4949  -32.5364   21.4954 H   0  0  0  0  0  0  0  0  0  0  0  0
   -6.1613  -30.6752   21.4663 H   0  0  0  0  0  0  0  0  0  0  0  0
   -5.5072  -28.5107   20.4479 H   0  0  0  0  0  0  0  0  0  0  0  0
   -3.7500  -27.1084   19.2458 H   0  0  0  0  0  0  0  0  0  0  0  0
    3.0198  -23.1044   17.2978 H   0  0  0  0  0  0  0  0  0  0  0  0
    5.8592  -22.7954   16.6542 H   0  0  0  0  0  0  0  0  0  0  0  0
    7.1706  -20.5288   15.8645 H   0  0  0  0  0  0  0  0  0  0  0  0
    3.1458  -20.8748   13.0642 H   0  0  0  0  0  0  0  0  0  0  0  0
    2.2216  -20.2264   14.4716 H   0  0  0  0  0  0  0  0  0  0  0  0
    3.4288  -19.2078   13.6177 H   0  0  0  0  0  0  0  0  0  0  0  0
  1  2  1  0
  2  3  1  0
  3  4  1  0
  4  5  1  0
  5  6  2  0
  5  7  1  0
  7  8  2  0
  8  9  1  0
  9 10  2  0
 10 11  1  0
 11 12  2  0
 12 13  1  0
 13 14  2  0
 14 15  1  0
 15 16  2  0
  2 17  1  0
 17 18  1  0
 18 19  2  0
 18 20  1  0
 20 21  2  0
 21 22  1  0
 22 23  2  0
 23 24  1  0
 24 25  1  0
 16  7  1  0
 24 20  1  0
 15 10  1  0
  1 26  1  0
  1 27  1  0
  1 28  1  0
  2 29  1  0
  3 30  1  0
  3 31  1  0
  4 32  1  0
  8 33  1  0
  9 34  1  0
 12 35  1  0
 13 36  1  0
 14 37  1  0
 16 38  1  0
 17 39  1  0
 21 40  1  0
 22 41  1  0
 25 42  1  0
 25 43  1  0
 25 44  1  0
M  END
>  <Energy>  (911) 
40.62415095441709

>  <compound_id>  (911) 
46848

>  <target_id>  (911) 
1

>  <reference_id>  (911) 
122

>  <inspiration_ids>  (911) 
[122, 68]

>  <energy_score>  (911) 
1.9769025467297752

>  <distance_score>  (911) 
14.849072278051823

>  <path>  (911) 
/opt/xchem-fragalysis-2/maxwin/BulkDock/SCRATCH/511023/C46848-P122/C46848-P122.minimised.mol

>  <scratch_subdir>  (911) 
/opt/xchem-fragalysis-2/maxwin/BulkDock/SCRATCH/511023/C46848-P122

>  <fragmenstein_runtime>  (911) 
44.32658123970032

>  <fragmenstein_outcome>  (911) 
too moved

>  <fragmenstein_mode>  (911) 
expansion

>  <fragmenstein_error>  (911) 


$$$$
C46848-P68
     RDKit          3D

 44 46  0  0  0  0  0  0  0  0999 V2000
   -1.0614  -13.8889   17.1852 C   0  0  0  0  0  0  0  0  0  0  0  0
   -2.4993  -13.8092   17.5447 C   0  0  0  0  0  0  0  0  0  0  0  0
   -3.6865  -15.2466   16.9095 C   0  0  0  0  0  0  0  0  0  0  0  0
   -4.1985  -16.7711   17.6275 N   0  0  0  0  0  0  0  0  0  0  0  0
   -3.9720  -18.1380   17.2240 C   0  0  0  0  0  0  0  0  0  0  0  0
   -3.4575  -18.4378   16.2692 O   0  0  0  0  0  0  0  0  0  0  0  0
   -4.3389  -19.6931   18.2665 C   0  0  0  0  0  0  0  0  0  0  0  0
   -3.6192  -21.6109   18.4888 C   0  0  0  0  0  0  0  0  0  0  0  0
   -3.6503  -22.4162   19.9295 C   0  0  0  0  0  0  0  0  0  0  0  0
   -4.4450  -21.9038   21.0327 C   0  0  0  0  0  0  0  0  0  0  0  0
   -4.6532  -22.8043   21.9919 N   0  0  0  0  0  0  0  0  0  0  0  0
   -5.7116  -22.6073   22.7985 C   0  0  0  0  0  0  0  0  0  0  0  0
   -6.5631  -21.5084   22.7226 C   0  0  0  0  0  0  0  0  0  0  0  0
   -6.3436  -20.4723   21.7867 C   0  0  0  0  0  0  0  0  0  0  0  0
   -5.3010  -20.5386   20.8586 C   0  0  0  0  0  0  0  0  0  0  0  0
   -5.1985  -19.4334   19.6206 C   0  0  0  0  0  0  0  0  0  0  0  0
   -2.5893  -12.1888   18.0042 N   0  0  0  0  0  0  0  0  0  0  0  0
   -3.7513  -11.3145   18.2723 C   0  0  0  0  0  0  0  0  0  0  0  0
   -4.9283  -11.5642   18.3063 O   0  0  0  0  0  0  0  0  0  0  0  0
   -3.3304   -9.8668   18.4471 C   0  0  0  0  0  0  0  0  0  0  0  0
   -2.3358   -9.0397   17.9189 C   0  0  0  0  0  0  0  0  0  0  0  0
   -2.2651   -7.8841   18.7121 C   0  0  0  0  0  0  0  0  0  0  0  0
   -3.2106   -7.9031   19.6412 N   0  0  0  0  0  0  0  0  0  0  0  0
   -3.9620   -8.9878   19.3168 N   0  0  0  0  0  0  0  0  0  0  0  0
   -5.2002   -9.2230   20.0299 C   0  0  0  0  0  0  0  0  0  0  0  0
   -1.0036  -14.0681   16.1462 H   0  0  0  0  0  0  0  0  0  0  0  0
   -0.5178  -14.6565   17.7097 H   0  0  0  0  0  0  0  0  0  0  0  0
   -0.5090  -13.0360   17.5067 H   0  0  0  0  0  0  0  0  0  0  0  0
   -2.1892  -14.2276   18.4878 H   0  0  0  0  0  0  0  0  0  0  0  0
   -2.9155  -15.8245   17.3034 H   0  0  0  0  0  0  0  0  0  0  0  0
   -3.5123  -15.5677   15.8783 H   0  0  0  0  0  0  0  0  0  0  0  0
   -4.5947  -16.7815   18.5467 H   0  0  0  0  0  0  0  0  0  0  0  0
   -3.3580  -22.4192   17.7140 H   0  0  0  0  0  0  0  0  0  0  0  0
   -3.2471  -23.4273   19.9488 H   0  0  0  0  0  0  0  0  0  0  0  0
   -5.8766  -23.3839   23.5415 H   0  0  0  0  0  0  0  0  0  0  0  0
   -7.4016  -21.4373   23.4116 H   0  0  0  0  0  0  0  0  0  0  0  0
   -7.0383  -19.6347   21.7653 H   0  0  0  0  0  0  0  0  0  0  0  0
   -5.7681  -18.5087   19.7043 H   0  0  0  0  0  0  0  0  0  0  0  0
   -1.7423  -11.6621   18.1387 H   0  0  0  0  0  0  0  0  0  0  0  0
   -1.7009   -9.1816   17.0808 H   0  0  0  0  0  0  0  0  0  0  0  0
   -1.5863   -7.0429   18.6488 H   0  0  0  0  0  0  0  0  0  0  0  0
   -5.0947  -10.1233   20.6389 H   0  0  0  0  0  0  0  0  0  0  0  0
   -6.0018   -9.3344   19.2960 H   0  0  0  0  0  0  0  0  0  0  0  0
   -5.4134   -8.3656   20.6739 H   0  0  0  0  0  0  0  0  0  0  0  0
  1  2  1  0
  2  3  1  0
  3  4  1  0
  4  5  1  0
  5  6  2  0
  5  7  1  0
  7  8  2  0
  8  9  1  0
  9 10  2  0
 10 11  1  0
 11 12  2  0
 12 13  1  0
 13 14  2  0
 14 15  1  0
 15 16  2  0
  2 17  1  0
 17 18  1  0
 18 19  2  0
 18 20  1  0
 20 21  2  0
 21 22  1  0
 22 23  2  0
 23 24  1  0
 24 25  1  0
 16  7  1  0
 24 20  1  0
 15 10  1  0
  1 26  1  0
  1 27  1  0
  1 28  1  0
  2 29  1  0
  3 30  1  0
  3 31  1  0
  4 32  1  0
  8 33  1  0
  9 34  1  0
 12 35  1  0
 13 36  1  0
 14 37  1  0
 16 38  1  0
 17 39  1  0
 21 40  1  0
 22 41  1  0
 25 42  1  0
 25 43  1  0
 25 44  1  0
M  END
>  <Energy>  (912) 
520.52671017487114

>  <compound_id>  (912) 
46848

>  <target_id>  (912) 
1

>  <reference_id>  (912) 
68

>  <inspiration_ids>  (912) 
[122, 68]

>  <energy_score>  (912) 
481.87946176717935

>  <distance_score>  (912) 
16.695782772414084

>  <path>  (912) 
/opt/xchem-fragalysis-2/maxwin/BulkDock/SCRATCH/511023/C46848-P68/C46848-P68.minimised.mol

>  <scratch_subdir>  (912) 
/opt/xchem-fragalysis-2/maxwin/BulkDock/SCRATCH/511023/C46848-P68

>  <fragmenstein_runtime>  (912) 
30.917237281799316

>  <fragmenstein_outcome>  (912) 
too moved

>  <fragmenstein_mode>  (912) 
expansion

>  <fragmenstein_error>  (912) 


$$$$
C46849-P122
     RDKit          3D

 45 47  0  0  0  0  0  0  0  0999 V2000
    3.8262  -17.5671   15.4063 C   0  0  0  0  0  0  0  0  0  0  0  0
    2.3304  -17.0748   16.3795 C   0  0  0  0  0  0  0  0  0  0  0  0
    2.7786  -15.1985   17.2258 C   0  0  0  0  0  0  0  0  0  0  0  0
    2.6525  -13.3330   17.9447 N   0  0  0  0  0  0  0  0  0  0  0  0
    3.6977  -13.8180   18.7655 C   0  0  0  0  0  0  0  0  0  0  0  0
    3.1403  -11.6306   17.1682 C   0  0  0  0  0  0  0  0  0  0  0  0
    3.7127  -11.5529   16.0900 O   0  0  0  0  0  0  0  0  0  0  0  0
    2.6759   -9.8712   17.7788 C   0  0  0  0  0  0  0  0  0  0  0  0
    1.4582   -8.8466   17.8372 C   0  0  0  0  0  0  0  0  0  0  0  0
    1.6598   -7.5269   17.7091 N   0  0  0  0  0  0  0  0  0  0  0  0
    2.9439   -7.5045   17.8400 N   0  0  0  0  0  0  0  0  0  0  0  0
    3.4218   -8.7900   18.1855 C   0  0  0  0  0  0  0  0  0  0  0  0
    1.7752  -18.8588   16.6173 N   0  0  0  0  0  0  0  0  0  0  0  0
    2.1276  -20.1180   15.6126 C   0  0  0  0  0  0  0  0  0  0  0  0
    1.6919  -21.7028   15.8056 C   0  0  0  0  0  0  0  0  0  0  0  0
    1.6766  -22.3061   17.0377 C   0  0  0  0  0  0  0  0  0  0  0  0
    1.1551  -23.6223   17.3295 C   0  0  0  0  0  0  0  0  0  0  0  0
    0.7075  -24.4941   16.3735 C   0  0  0  0  0  0  0  0  0  0  0  0
    0.1596  -25.6926   16.7315 N   0  0  0  0  0  0  0  0  0  0  0  0
   -0.2400  -26.5173   15.7485 C   0  0  0  0  0  0  0  0  0  0  0  0
   -0.1056  -26.1918   14.4132 C   0  0  0  0  0  0  0  0  0  0  0  0
    0.4623  -24.9478   14.0714 C   0  0  0  0  0  0  0  0  0  0  0  0
    0.8780  -24.0312   15.0604 C   0  0  0  0  0  0  0  0  0  0  0  0
    1.3924  -22.6560   14.7972 C   0  0  0  0  0  0  0  0  0  0  0  0
    4.7039  -16.9485   15.6409 H   0  0  0  0  0  0  0  0  0  0  0  0
    4.0346  -18.6186   15.5207 H   0  0  0  0  0  0  0  0  0  0  0  0
    3.7921  -17.5885   14.3065 H   0  0  0  0  0  0  0  0  0  0  0  0
    2.0846  -17.3478   17.4120 H   0  0  0  0  0  0  0  0  0  0  0  0
    2.5826  -15.5777   18.2021 H   0  0  0  0  0  0  0  0  0  0  0  0
    1.8339  -14.8576   16.7708 H   0  0  0  0  0  0  0  0  0  0  0  0
    2.9507  -14.3558   19.3630 H   0  0  0  0  0  0  0  0  0  0  0  0
    4.3986  -14.5071   18.2924 H   0  0  0  0  0  0  0  0  0  0  0  0
    4.2752  -13.0474   19.2960 H   0  0  0  0  0  0  0  0  0  0  0  0
    0.4000   -8.9611   17.9135 H   0  0  0  0  0  0  0  0  0  0  0  0
    3.4411   -6.6197   17.8491 H   0  0  0  0  0  0  0  0  0  0  0  0
    4.4656   -8.7982   18.4989 H   0  0  0  0  0  0  0  0  0  0  0  0
    2.1846  -19.1603   17.5060 H   0  0  0  0  0  0  0  0  0  0  0  0
    3.2112  -20.2343   15.6443 H   0  0  0  0  0  0  0  0  0  0  0  0
    1.8335  -19.8205   14.6029 H   0  0  0  0  0  0  0  0  0  0  0  0
    2.0024  -21.6494   17.8427 H   0  0  0  0  0  0  0  0  0  0  0  0
    1.0984  -23.9388   18.3683 H   0  0  0  0  0  0  0  0  0  0  0  0
   -0.6692  -27.4611   16.0675 H   0  0  0  0  0  0  0  0  0  0  0  0
   -0.4289  -26.8807   13.6407 H   0  0  0  0  0  0  0  0  0  0  0  0
    0.5615  -24.6836   13.0207 H   0  0  0  0  0  0  0  0  0  0  0  0
    1.4629  -22.3266   13.7595 H   0  0  0  0  0  0  0  0  0  0  0  0
  1  2  1  0
  2  3  1  0
  3  4  1  0
  4  5  1  0
  4  6  1  0
  6  7  2  0
  6  8  1  0
  8  9  1  0
  9 10  2  0
 10 11  1  0
 11 12  1  0
  2 13  1  0
 13 14  1  0
 14 15  1  0
 15 16  2  0
 16 17  1  0
 17 18  2  0
 18 19  1  0
 19 20  2  0
 20 21  1  0
 21 22  2  0
 22 23  1  0
 23 24  2  0
 12  8  2  0
 24 15  1  0
 23 18  1  0
  1 25  1  0
  1 26  1  0
  1 27  1  0
  2 28  1  0
  3 29  1  0
  3 30  1  0
  5 31  1  0
  5 32  1  0
  5 33  1  0
  9 34  1  0
 11 35  1  0
 12 36  1  0
 13 37  1  0
 14 38  1  0
 14 39  1  0
 16 40  1  0
 17 41  1  0
 20 42  1  0
 21 43  1  0
 22 44  1  0
 24 45  1  0
M  END
>  <Energy>  (913) 
741.10863585821505

>  <compound_id>  (913) 
46849

>  <target_id>  (913) 
1

>  <reference_id>  (913) 
122

>  <inspiration_ids>  (913) 
[122, 68]

>  <energy_score>  (913) 
644.8321015301449

>  <distance_score>  (913) 
16.64262413299217

>  <path>  (913) 
/opt/xchem-fragalysis-2/maxwin/BulkDock/SCRATCH/511023/C46849-P122/C46849-P122.minimised.mol

>  <scratch_subdir>  (913) 
/opt/xchem-fragalysis-2/maxwin/BulkDock/SCRATCH/511023/C46849-P122

>  <fragmenstein_runtime>  (913) 
23.77738118171692

>  <fragmenstein_outcome>  (913) 
too moved

>  <fragmenstein_mode>  (913) 
expansion

>  <fragmenstein_error>  (913) 


$$$$
C46849-P68
     RDKit          3D

 45 47  0  0  0  0  0  0  0  0999 V2000
   -1.9559  -25.1272   19.9609 C   0  0  0  0  0  0  0  0  0  0  0  0
   -1.2749  -25.7322   18.7189 C   0  0  0  0  0  0  0  0  0  0  0  0
   -0.7314  -24.5682   17.6528 C   0  0  0  0  0  0  0  0  0  0  0  0
    0.4424  -23.4645   17.5317 N   0  0  0  0  0  0  0  0  0  0  0  0
    0.4156  -23.5793   18.9887 C   0  0  0  0  0  0  0  0  0  0  0  0
    1.8074  -23.5814   17.0476 C   0  0  0  0  0  0  0  0  0  0  0  0
    2.4314  -24.5503   16.7009 O   0  0  0  0  0  0  0  0  0  0  0  0
    2.5104  -22.2421   16.8612 C   0  0  0  0  0  0  0  0  0  0  0  0
    3.8023  -22.0154   16.2671 C   0  0  0  0  0  0  0  0  0  0  0  0
    4.1411  -20.7260   16.1120 N   0  0  0  0  0  0  0  0  0  0  0  0
    3.0363  -20.0871   16.5396 N   0  0  0  0  0  0  0  0  0  0  0  0
    2.1295  -20.9362   17.1320 C   0  0  0  0  0  0  0  0  0  0  0  0
   -2.2756  -26.6601   18.0419 N   0  0  0  0  0  0  0  0  0  0  0  0
   -3.0019  -27.6723   18.8551 C   0  0  0  0  0  0  0  0  0  0  0  0
   -3.3172  -28.9346   18.0614 C   0  0  0  0  0  0  0  0  0  0  0  0
   -2.2600  -29.7838   17.7211 C   0  0  0  0  0  0  0  0  0  0  0  0
   -2.4718  -30.9492   16.9749 C   0  0  0  0  0  0  0  0  0  0  0  0
   -3.7328  -31.3368   16.5619 C   0  0  0  0  0  0  0  0  0  0  0  0
   -3.8716  -32.5028   15.8981 N   0  0  0  0  0  0  0  0  0  0  0  0
   -5.0919  -32.8329   15.4344 C   0  0  0  0  0  0  0  0  0  0  0  0
   -6.1966  -32.0261   15.5807 C   0  0  0  0  0  0  0  0  0  0  0  0
   -6.0389  -30.8347   16.2824 C   0  0  0  0  0  0  0  0  0  0  0  0
   -4.8061  -30.4771   16.8477 C   0  0  0  0  0  0  0  0  0  0  0  0
   -4.6009  -29.2945   17.6184 C   0  0  0  0  0  0  0  0  0  0  0  0
   -1.2324  -24.6750   20.6441 H   0  0  0  0  0  0  0  0  0  0  0  0
   -2.4652  -25.8778   20.5726 H   0  0  0  0  0  0  0  0  0  0  0  0
   -2.6964  -24.3720   19.6765 H   0  0  0  0  0  0  0  0  0  0  0  0
   -0.4194  -26.3487   19.0174 H   0  0  0  0  0  0  0  0  0  0  0  0
   -0.5185  -25.1546   16.7454 H   0  0  0  0  0  0  0  0  0  0  0  0
   -1.6275  -23.9811   17.4032 H   0  0  0  0  0  0  0  0  0  0  0  0
   -0.5060  -23.1875   19.4270 H   0  0  0  0  0  0  0  0  0  0  0  0
    1.1511  -22.8479   19.3536 H   0  0  0  0  0  0  0  0  0  0  0  0
    0.8035  -24.5286   19.3783 H   0  0  0  0  0  0  0  0  0  0  0  0
    4.4864  -22.7788   15.9186 H   0  0  0  0  0  0  0  0  0  0  0  0
    2.9549  -19.0841   16.3981 H   0  0  0  0  0  0  0  0  0  0  0  0
    1.2450  -20.5271   17.5804 H   0  0  0  0  0  0  0  0  0  0  0  0
   -2.9522  -26.1294   17.4969 H   0  0  0  0  0  0  0  0  0  0  0  0
   -2.3911  -27.9775   19.7140 H   0  0  0  0  0  0  0  0  0  0  0  0
   -3.9267  -27.2364   19.2501 H   0  0  0  0  0  0  0  0  0  0  0  0
   -1.2444  -29.5368   18.0273 H   0  0  0  0  0  0  0  0  0  0  0  0
   -1.6224  -31.5866   16.7394 H   0  0  0  0  0  0  0  0  0  0  0  0
   -5.1479  -33.7785   14.9045 H   0  0  0  0  0  0  0  0  0  0  0  0
   -7.1529  -32.3033   15.1542 H   0  0  0  0  0  0  0  0  0  0  0  0
   -6.8826  -30.1653   16.3510 H   0  0  0  0  0  0  0  0  0  0  0  0
   -5.4493  -28.6487   17.8350 H   0  0  0  0  0  0  0  0  0  0  0  0
  1  2  1  0
  2  3  1  0
  3  4  1  0
  4  5  1  0
  4  6  1  0
  6  7  2  0
  6  8  1  0
  8  9  1  0
  9 10  2  0
 10 11  1  0
 11 12  1  0
  2 13  1  0
 13 14  1  0
 14 15  1  0
 15 16  2  0
 16 17  1  0
 17 18  2  0
 18 19  1  0
 19 20  2  0
 20 21  1  0
 21 22  2  0
 22 23  1  0
 23 24  2  0
 12  8  2  0
 24 15  1  0
 23 18  1  0
  1 25  1  0
  1 26  1  0
  1 27  1  0
  2 28  1  0
  3 29  1  0
  3 30  1  0
  5 31  1  0
  5 32  1  0
  5 33  1  0
  9 34  1  0
 11 35  1  0
 12 36  1  0
 13 37  1  0
 14 38  1  0
 14 39  1  0
 16 40  1  0
 17 41  1  0
 20 42  1  0
 21 43  1  0
 22 44  1  0
 24 45  1  0
M  END
>  <Energy>  (914) 
157.94311170428867

>  <compound_id>  (914) 
46849

>  <target_id>  (914) 
1

>  <reference_id>  (914) 
68

>  <inspiration_ids>  (914) 
[122, 68]

>  <energy_score>  (914) 
61.66657737621904

>  <distance_score>  (914) 
14.733506628524438

>  <path>  (914) 
/opt/xchem-fragalysis-2/maxwin/BulkDock/SCRATCH/511023/C46849-P68/C46849-P68.minimised.mol

>  <scratch_subdir>  (914) 
/opt/xchem-fragalysis-2/maxwin/BulkDock/SCRATCH/511023/C46849-P68

>  <fragmenstein_runtime>  (914) 
22.849215745925903

>  <fragmenstein_outcome>  (914) 
too moved

>  <fragmenstein_mode>  (914) 
expansion

>  <fragmenstein_error>  (914) 


$$$$
C46852-P122
     RDKit          3D

 48 50  0  0  0  0  0  0  0  0999 V2000
   -2.9934  -17.1686   20.2190 C   0  0  0  0  0  0  0  0  0  0  0  0
   -1.9713  -16.5226   19.5321 C   0  0  0  0  0  0  0  0  0  0  0  0
   -0.7339  -17.0949   20.2784 C   0  0  0  0  0  0  0  0  0  0  0  0
   -2.6954  -16.7867   18.1819 C   0  0  0  0  0  0  0  0  0  0  0  0
   -2.0877  -15.0426   17.3337 C   0  0  0  0  0  0  0  0  0  0  0  0
   -0.9508  -14.1839   16.3946 N   0  0  0  0  0  0  0  0  0  0  0  0
    0.8788  -13.7875   16.7068 C   0  0  0  0  0  0  0  0  0  0  0  0
    1.5159  -14.1452   17.6879 O   0  0  0  0  0  0  0  0  0  0  0  0
    1.7922  -12.5688   15.3960 C   0  0  0  0  0  0  0  0  0  0  0  0
    3.0523  -11.4924   15.4942 C   0  0  0  0  0  0  0  0  0  0  0  0
    3.1449  -10.8053   14.3162 C   0  0  0  0  0  0  0  0  0  0  0  0
    2.1110  -11.2721   13.5763 N   0  0  0  0  0  0  0  0  0  0  0  0
    1.4446  -12.3487   14.0540 N   0  0  0  0  0  0  0  0  0  0  0  0
   -3.8698  -18.3083   18.1425 N   0  0  0  0  0  0  0  0  0  0  0  0
   -5.3609  -18.4871   19.1674 C   0  0  0  0  0  0  0  0  0  0  0  0
   -6.4529  -19.7106   19.5449 C   0  0  0  0  0  0  0  0  0  0  0  0
   -7.6420  -19.9197   18.8305 C   0  0  0  0  0  0  0  0  0  0  0  0
   -8.4885  -21.0713   19.0100 C   0  0  0  0  0  0  0  0  0  0  0  0
   -8.3163  -22.0145   20.0191 C   0  0  0  0  0  0  0  0  0  0  0  0
   -9.1150  -23.1082   20.1436 N   0  0  0  0  0  0  0  0  0  0  0  0
   -8.9807  -23.8836   21.2422 C   0  0  0  0  0  0  0  0  0  0  0  0
   -8.0500  -23.6300   22.2236 C   0  0  0  0  0  0  0  0  0  0  0  0
   -7.2112  -22.5302   22.0606 C   0  0  0  0  0  0  0  0  0  0  0  0
   -7.3145  -21.6990   20.9333 C   0  0  0  0  0  0  0  0  0  0  0  0
   -6.4367  -20.5649   20.6970 C   0  0  0  0  0  0  0  0  0  0  0  0
   -3.3657  -16.5159   20.9709 H   0  0  0  0  0  0  0  0  0  0  0  0
   -2.7287  -18.2182   20.2815 H   0  0  0  0  0  0  0  0  0  0  0  0
   -3.9051  -17.1965   19.7471 H   0  0  0  0  0  0  0  0  0  0  0  0
   -1.9782  -15.4710   19.7782 H   0  0  0  0  0  0  0  0  0  0  0  0
   -0.2636  -16.3886   20.9418 H   0  0  0  0  0  0  0  0  0  0  0  0
   -0.9645  -17.8801   20.9925 H   0  0  0  0  0  0  0  0  0  0  0  0
    0.1160  -17.4158   19.7088 H   0  0  0  0  0  0  0  0  0  0  0  0
   -3.7367  -16.5042   17.9695 H   0  0  0  0  0  0  0  0  0  0  0  0
   -1.9461  -14.3339   18.1502 H   0  0  0  0  0  0  0  0  0  0  0  0
   -2.9207  -14.8204   16.6437 H   0  0  0  0  0  0  0  0  0  0  0  0
   -1.2098  -13.8572   15.5028 H   0  0  0  0  0  0  0  0  0  0  0  0
    3.6851  -11.3603   16.3648 H   0  0  0  0  0  0  0  0  0  0  0  0
    3.8051  -10.0259   13.9677 H   0  0  0  0  0  0  0  0  0  0  0  0
    1.8501  -10.9708   12.6446 H   0  0  0  0  0  0  0  0  0  0  0  0
   -3.2455  -18.9805   18.5942 H   0  0  0  0  0  0  0  0  0  0  0  0
   -5.1685  -18.1745   20.1877 H   0  0  0  0  0  0  0  0  0  0  0  0
   -5.9995  -17.7402   18.7214 H   0  0  0  0  0  0  0  0  0  0  0  0
   -7.9586  -19.1902   18.0848 H   0  0  0  0  0  0  0  0  0  0  0  0
   -9.3385  -21.1942   18.3391 H   0  0  0  0  0  0  0  0  0  0  0  0
   -9.6969  -24.6956   21.3315 H   0  0  0  0  0  0  0  0  0  0  0  0
   -7.9976  -24.2247   23.1245 H   0  0  0  0  0  0  0  0  0  0  0  0
   -6.4967  -22.3105   22.8454 H   0  0  0  0  0  0  0  0  0  0  0  0
   -5.6956  -20.4781   21.4642 H   0  0  0  0  0  0  0  0  0  0  0  0
  1  2  1  0
  2  3  1  0
  2  4  1  0
  4  5  1  0
  5  6  1  0
  6  7  1  0
  7  8  2  0
  7  9  1  0
  9 10  1  0
 10 11  2  0
 11 12  1  0
 12 13  1  0
  4 14  1  0
 14 15  1  0
 15 16  1  0
 16 17  2  0
 17 18  1  0
 18 19  2  0
 19 20  1  0
 20 21  2  0
 21 22  1  0
 22 23  2  0
 23 24  1  0
 24 25  2  0
 13  9  2  0
 25 16  1  0
 24 19  1  0
  1 26  1  0
  1 27  1  0
  1 28  1  0
  2 29  1  0
  3 30  1  0
  3 31  1  0
  3 32  1  0
  4 33  1  0
  5 34  1  0
  5 35  1  0
  6 36  1  0
 10 37  1  0
 11 38  1  0
 12 39  1  0
 14 40  1  0
 15 41  1  0
 15 42  1  0
 17 43  1  0
 18 44  1  0
 21 45  1  0
 22 46  1  0
 23 47  1  0
 25 48  1  0
M  END
>  <Energy>  (915) 
655.96664534647334

>  <compound_id>  (915) 
46852

>  <target_id>  (915) 
1

>  <reference_id>  (915) 
122

>  <inspiration_ids>  (915) 
[122, 68]

>  <energy_score>  (915) 
515.7089865595552

>  <distance_score>  (915) 
15.22327756039565

>  <path>  (915) 
/opt/xchem-fragalysis-2/maxwin/BulkDock/SCRATCH/511023/C46852-P122/C46852-P122.minimised.mol

>  <scratch_subdir>  (915) 
/opt/xchem-fragalysis-2/maxwin/BulkDock/SCRATCH/511023/C46852-P122

>  <fragmenstein_runtime>  (915) 
19.01202154159546

>  <fragmenstein_outcome>  (915) 
too moved

>  <fragmenstein_mode>  (915) 
expansion

>  <fragmenstein_error>  (915) 


$$$$
C46852-P68
     RDKit          3D

 48 50  0  0  0  0  0  0  0  0999 V2000
    5.0074  -26.8156   16.5746 C   0  0  0  0  0  0  0  0  0  0  0  0
    3.7152  -27.4876   17.0578 C   0  0  0  0  0  0  0  0  0  0  0  0
    3.4432  -28.6943   16.1438 C   0  0  0  0  0  0  0  0  0  0  0  0
    2.5006  -26.5043   17.0830 C   0  0  0  0  0  0  0  0  0  0  0  0
    2.8042  -25.1393   17.8254 C   0  0  0  0  0  0  0  0  0  0  0  0
    3.0588  -23.8638   17.0895 N   0  0  0  0  0  0  0  0  0  0  0  0
    4.2971  -23.1662   16.7943 C   0  0  0  0  0  0  0  0  0  0  0  0
    5.4376  -23.4786   16.9968 O   0  0  0  0  0  0  0  0  0  0  0  0
    4.0825  -21.7592   16.2225 C   0  0  0  0  0  0  0  0  0  0  0  0
    5.0943  -20.8637   15.7058 C   0  0  0  0  0  0  0  0  0  0  0  0
    4.4611  -19.6756   15.4166 C   0  0  0  0  0  0  0  0  0  0  0  0
    3.1423  -19.8885   15.7106 N   0  0  0  0  0  0  0  0  0  0  0  0
    2.9009  -21.1108   16.2555 N   0  0  0  0  0  0  0  0  0  0  0  0
    1.2097  -27.1707   17.5125 N   0  0  0  0  0  0  0  0  0  0  0  0
    1.1679  -28.0356   18.6987 C   0  0  0  0  0  0  0  0  0  0  0  0
   -0.1780  -28.7293   18.7586 C   0  0  0  0  0  0  0  0  0  0  0  0
   -0.4306  -29.8808   18.0019 C   0  0  0  0  0  0  0  0  0  0  0  0
   -1.7318  -30.3606   17.8515 C   0  0  0  0  0  0  0  0  0  0  0  0
   -2.8038  -29.7164   18.4408 C   0  0  0  0  0  0  0  0  0  0  0  0
   -4.0571  -30.1383   18.2043 N   0  0  0  0  0  0  0  0  0  0  0  0
   -5.0546  -29.3919   18.7025 C   0  0  0  0  0  0  0  0  0  0  0  0
   -4.8488  -28.2317   19.4315 C   0  0  0  0  0  0  0  0  0  0  0  0
   -3.5669  -27.8358   19.7344 C   0  0  0  0  0  0  0  0  0  0  0  0
   -2.5255  -28.5800   19.2302 C   0  0  0  0  0  0  0  0  0  0  0  0
   -1.2327  -28.1138   19.4225 C   0  0  0  0  0  0  0  0  0  0  0  0
    5.8045  -27.5545   16.4360 H   0  0  0  0  0  0  0  0  0  0  0  0
    5.3781  -26.0930   17.3054 H   0  0  0  0  0  0  0  0  0  0  0  0
    4.8560  -26.3005   15.6202 H   0  0  0  0  0  0  0  0  0  0  0  0
    3.9037  -27.8575   18.0730 H   0  0  0  0  0  0  0  0  0  0  0  0
    4.2978  -29.3799   16.1443 H   0  0  0  0  0  0  0  0  0  0  0  0
    2.5716  -29.2695   16.4656 H   0  0  0  0  0  0  0  0  0  0  0  0
    3.2711  -28.3737   15.1104 H   0  0  0  0  0  0  0  0  0  0  0  0
    2.3460  -26.2461   16.0311 H   0  0  0  0  0  0  0  0  0  0  0  0
    1.9434  -24.9037   18.4615 H   0  0  0  0  0  0  0  0  0  0  0  0
    3.6652  -25.3041   18.4762 H   0  0  0  0  0  0  0  0  0  0  0  0
    2.2735  -23.2604   16.8520 H   0  0  0  0  0  0  0  0  0  0  0  0
    6.1406  -21.0985   15.5741 H   0  0  0  0  0  0  0  0  0  0  0  0
    4.7946  -18.7406   14.9918 H   0  0  0  0  0  0  0  0  0  0  0  0
    2.3449  -19.2689   15.5515 H   0  0  0  0  0  0  0  0  0  0  0  0
    0.4898  -26.4577   17.6160 H   0  0  0  0  0  0  0  0  0  0  0  0
    1.9439  -28.8066   18.6725 H   0  0  0  0  0  0  0  0  0  0  0  0
    1.3367  -27.4440   19.6060 H   0  0  0  0  0  0  0  0  0  0  0  0
    0.3785  -30.3633   17.4578 H   0  0  0  0  0  0  0  0  0  0  0  0
   -1.9089  -31.2183   17.2087 H   0  0  0  0  0  0  0  0  0  0  0  0
   -6.0473  -29.7639   18.4893 H   0  0  0  0  0  0  0  0  0  0  0  0
   -5.6417  -27.6151   19.8063 H   0  0  0  0  0  0  0  0  0  0  0  0
   -3.3962  -26.9401   20.3229 H   0  0  0  0  0  0  0  0  0  0  0  0
   -1.0476  -27.2000   19.9839 H   0  0  0  0  0  0  0  0  0  0  0  0
  1  2  1  0
  2  3  1  0
  2  4  1  0
  4  5  1  0
  5  6  1  0
  6  7  1  0
  7  8  2  0
  7  9  1  0
  9 10  1  0
 10 11  2  0
 11 12  1  0
 12 13  1  0
  4 14  1  0
 14 15  1  0
 15 16  1  0
 16 17  2  0
 17 18  1  0
 18 19  2  0
 19 20  1  0
 20 21  2  0
 21 22  1  0
 22 23  2  0
 23 24  1  0
 24 25  2  0
 13  9  2  0
 25 16  1  0
 24 19  1  0
  1 26  1  0
  1 27  1  0
  1 28  1  0
  2 29  1  0
  3 30  1  0
  3 31  1  0
  3 32  1  0
  4 33  1  0
  5 34  1  0
  5 35  1  0
  6 36  1  0
 10 37  1  0
 11 38  1  0
 12 39  1  0
 14 40  1  0
 15 41  1  0
 15 42  1  0
 17 43  1  0
 18 44  1  0
 21 45  1  0
 22 46  1  0
 23 47  1  0
 25 48  1  0
M  END
>  <Energy>  (916) 
100.38659938784095

>  <compound_id>  (916) 
46852

>  <target_id>  (916) 
1

>  <reference_id>  (916) 
68

>  <inspiration_ids>  (916) 
[122, 68]

>  <energy_score>  (916) 
-39.8710593990844

>  <distance_score>  (916) 
15.475807227816688

>  <path>  (916) 
/opt/xchem-fragalysis-2/maxwin/BulkDock/SCRATCH/511023/C46852-P68/C46852-P68.minimised.mol

>  <scratch_subdir>  (916) 
/opt/xchem-fragalysis-2/maxwin/BulkDock/SCRATCH/511023/C46852-P68

>  <fragmenstein_runtime>  (916) 
26.116337299346924

>  <fragmenstein_outcome>  (916) 
too moved

>  <fragmenstein_mode>  (916) 
expansion

>  <fragmenstein_error>  (916) 


$$$$
C46853-P122
     RDKit          3D

 34 36  0  0  0  0  0  0  0  0999 V2000
    4.0019  -18.1793   15.1575 O   0  0  0  0  0  0  0  0  0  0  0  0
    3.0060  -18.2923   15.8722 C   0  0  0  0  0  0  0  0  0  0  0  0
    2.2310  -17.1526   16.8162 N   0  0  0  0  0  0  0  0  0  0  0  0
    2.7170  -15.2515   17.2384 C   0  0  0  0  0  0  0  0  0  0  0  0
    3.7871  -13.6293   17.9701 C   0  0  0  0  0  0  0  0  0  0  0  0
    4.4226  -11.8814   17.1819 N   0  0  0  0  0  0  0  0  0  0  0  0
    6.0636  -11.7906   18.3386 C   0  0  0  0  0  0  0  0  0  0  0  0
    7.3072  -10.6067   17.2177 C   0  0  0  0  0  0  0  0  0  0  0  0
    9.1086  -10.7242   17.1933 Cl  0  0  0  0  0  0  0  0  0  0  0  0
    6.5394  -10.4421   15.1198 C   0  0  0  0  0  0  0  0  0  0  0  0
    4.7013  -11.0448   15.3510 N   0  0  0  0  0  0  0  0  0  0  0  0
    2.4311  -19.8887   15.9866 C   0  0  0  0  0  0  0  0  0  0  0  0
    2.5380  -20.5962   17.1976 C   0  0  0  0  0  0  0  0  0  0  0  0
    2.3898  -22.0205   17.3911 C   0  0  0  0  0  0  0  0  0  0  0  0
    1.8581  -22.8352   16.4222 C   0  0  0  0  0  0  0  0  0  0  0  0
    1.4570  -24.0982   16.7423 N   0  0  0  0  0  0  0  0  0  0  0  0
    0.8723  -24.8344   15.7796 C   0  0  0  0  0  0  0  0  0  0  0  0
    0.7003  -24.3619   14.4938 C   0  0  0  0  0  0  0  0  0  0  0  0
    1.1461  -23.0596   14.1842 C   0  0  0  0  0  0  0  0  0  0  0  0
    1.7191  -22.2211   15.1634 C   0  0  0  0  0  0  0  0  0  0  0  0
    2.1194  -20.7944   14.9472 C   0  0  0  0  0  0  0  0  0  0  0  0
    1.4905  -17.5998   17.3461 H   0  0  0  0  0  0  0  0  0  0  0  0
    2.5136  -15.3972   18.2934 H   0  0  0  0  0  0  0  0  0  0  0  0
    1.7971  -14.7254   16.9139 H   0  0  0  0  0  0  0  0  0  0  0  0
    2.9932  -12.9886   18.1072 H   0  0  0  0  0  0  0  0  0  0  0  0
    4.3210  -13.6313   18.9184 H   0  0  0  0  0  0  0  0  0  0  0  0
    5.7769  -11.7068   19.3875 H   0  0  0  0  0  0  0  0  0  0  0  0
    6.9099   -9.8747   14.2719 H   0  0  0  0  0  0  0  0  0  0  0  0
    2.6970  -20.0601   18.1164 H   0  0  0  0  0  0  0  0  0  0  0  0
    2.5351  -22.4170   18.3961 H   0  0  0  0  0  0  0  0  0  0  0  0
    0.5517  -25.8286   16.0719 H   0  0  0  0  0  0  0  0  0  0  0  0
    0.2336  -24.9789   13.7340 H   0  0  0  0  0  0  0  0  0  0  0  0
    0.9964  -22.6771   13.1768 H   0  0  0  0  0  0  0  0  0  0  0  0
    2.0743  -20.3985   13.9321 H   0  0  0  0  0  0  0  0  0  0  0  0
  1  2  2  0
  2  3  1  0
  3  4  1  0
  4  5  1  0
  5  6  1  0
  6  7  1  0
  7  8  2  0
  8  9  1  0
  8 10  1  0
 10 11  2  0
  2 12  1  0
 12 13  2  0
 13 14  1  0
 14 15  2  0
 15 16  1  0
 16 17  2  0
 17 18  1  0
 18 19  2  0
 19 20  1  0
 20 21  2  0
 11  6  1  0
 21 12  1  0
 20 15  1  0
  3 22  1  0
  4 23  1  0
  4 24  1  0
  5 25  1  0
  5 26  1  0
  7 27  1  0
 10 28  1  0
 13 29  1  0
 14 30  1  0
 17 31  1  0
 18 32  1  0
 19 33  1  0
 21 34  1  0
M  END
>  <Energy>  (917) 
1244.9761061555009

>  <compound_id>  (917) 
46853

>  <target_id>  (917) 
1

>  <reference_id>  (917) 
122

>  <inspiration_ids>  (917) 
[122, 68]

>  <energy_score>  (917) 
1184.4329880094026

>  <distance_score>  (917) 
17.355236435684265

>  <path>  (917) 
/opt/xchem-fragalysis-2/maxwin/BulkDock/SCRATCH/511023/C46853-P122/C46853-P122.minimised.mol

>  <scratch_subdir>  (917) 
/opt/xchem-fragalysis-2/maxwin/BulkDock/SCRATCH/511023/C46853-P122

>  <fragmenstein_runtime>  (917) 
15.500850439071655

>  <fragmenstein_outcome>  (917) 
too moved

>  <fragmenstein_mode>  (917) 
expansion

>  <fragmenstein_error>  (917) 


$$$$
C46853-P68
     RDKit          3D

 34 36  0  0  0  0  0  0  0  0999 V2000
   -1.7688  -26.4233   23.3489 O   0  0  0  0  0  0  0  0  0  0  0  0
   -0.8748  -27.1340   22.9837 C   0  0  0  0  0  0  0  0  0  0  0  0
    0.3131  -26.8345   22.2081 N   0  0  0  0  0  0  0  0  0  0  0  0
    0.7475  -25.5831   21.5401 C   0  0  0  0  0  0  0  0  0  0  0  0
    2.1590  -25.0063   21.8420 C   0  0  0  0  0  0  0  0  0  0  0  0
    2.3099  -23.6015   21.4018 N   0  0  0  0  0  0  0  0  0  0  0  0
    1.8617  -22.5281   22.1267 C   0  0  0  0  0  0  0  0  0  0  0  0
    1.3592  -21.6818   21.1736 C   0  0  0  0  0  0  0  0  0  0  0  0
    0.0628  -20.6433   21.4187 Cl  0  0  0  0  0  0  0  0  0  0  0  0
    1.9270  -22.1026   19.9613 C   0  0  0  0  0  0  0  0  0  0  0  0
    2.5457  -23.2895   20.1016 N   0  0  0  0  0  0  0  0  0  0  0  0
   -1.1030  -28.6058   23.3793 C   0  0  0  0  0  0  0  0  0  0  0  0
   -0.5913  -29.7095   22.6965 C   0  0  0  0  0  0  0  0  0  0  0  0
   -0.9009  -31.0307   23.1140 C   0  0  0  0  0  0  0  0  0  0  0  0
   -1.7413  -31.3163   24.1909 C   0  0  0  0  0  0  0  0  0  0  0  0
   -2.0314  -32.5977   24.5327 N   0  0  0  0  0  0  0  0  0  0  0  0
   -2.9146  -32.8066   25.5343 C   0  0  0  0  0  0  0  0  0  0  0  0
   -3.5462  -31.7905   26.2198 C   0  0  0  0  0  0  0  0  0  0  0  0
   -3.2348  -30.4775   25.8772 C   0  0  0  0  0  0  0  0  0  0  0  0
   -2.3209  -30.2135   24.8452 C   0  0  0  0  0  0  0  0  0  0  0  0
   -1.9971  -28.8895   24.4411 C   0  0  0  0  0  0  0  0  0  0  0  0
    0.8918  -27.6629   22.1572 H   0  0  0  0  0  0  0  0  0  0  0  0
   -0.0152  -24.8340   21.7840 H   0  0  0  0  0  0  0  0  0  0  0  0
    0.6646  -25.7741   20.4640 H   0  0  0  0  0  0  0  0  0  0  0  0
    2.9404  -25.5883   21.3422 H   0  0  0  0  0  0  0  0  0  0  0  0
    2.3586  -25.0196   22.9193 H   0  0  0  0  0  0  0  0  0  0  0  0
    1.6577  -22.6039   23.1849 H   0  0  0  0  0  0  0  0  0  0  0  0
    1.8365  -21.6727   18.9740 H   0  0  0  0  0  0  0  0  0  0  0  0
    0.0290  -29.5887   21.8130 H   0  0  0  0  0  0  0  0  0  0  0  0
   -0.4905  -31.8669   22.5480 H   0  0  0  0  0  0  0  0  0  0  0  0
   -3.1084  -33.8449   25.7818 H   0  0  0  0  0  0  0  0  0  0  0  0
   -4.2542  -32.0100   27.0108 H   0  0  0  0  0  0  0  0  0  0  0  0
   -3.7188  -29.6597   26.4058 H   0  0  0  0  0  0  0  0  0  0  0  0
   -2.4641  -28.0540   24.9642 H   0  0  0  0  0  0  0  0  0  0  0  0
  1  2  2  0
  2  3  1  0
  3  4  1  0
  4  5  1  0
  5  6  1  0
  6  7  1  0
  7  8  2  0
  8  9  1  0
  8 10  1  0
 10 11  2  0
  2 12  1  0
 12 13  2  0
 13 14  1  0
 14 15  2  0
 15 16  1  0
 16 17  2  0
 17 18  1  0
 18 19  2  0
 19 20  1  0
 20 21  2  0
 11  6  1  0
 21 12  1  0
 20 15  1  0
  3 22  1  0
  4 23  1  0
  4 24  1  0
  5 25  1  0
  5 26  1  0
  7 27  1  0
 10 28  1  0
 13 29  1  0
 14 30  1  0
 17 31  1  0
 18 32  1  0
 19 33  1  0
 21 34  1  0
M  END
>  <Energy>  (918) 
64.101881705899814

>  <compound_id>  (918) 
46853

>  <target_id>  (918) 
1

>  <reference_id>  (918) 
68

>  <inspiration_ids>  (918) 
[122, 68]

>  <energy_score>  (918) 
3.558763559787792

>  <distance_score>  (918) 
15.768653948964966

>  <path>  (918) 
/opt/xchem-fragalysis-2/maxwin/BulkDock/SCRATCH/511023/C46853-P68/C46853-P68.minimised.mol

>  <scratch_subdir>  (918) 
/opt/xchem-fragalysis-2/maxwin/BulkDock/SCRATCH/511023/C46853-P68

>  <fragmenstein_runtime>  (918) 
27.196465492248535

>  <fragmenstein_outcome>  (918) 
too moved

>  <fragmenstein_mode>  (918) 
expansion

>  <fragmenstein_error>  (918) 


$$$$
C46855-P122
     RDKit          3D

 31 33  0  0  0  0  0  0  0  0999 V2000
    1.3150  -24.8545   17.2184 O   0  0  0  0  0  0  0  0  0  0  0  0
    0.7096  -24.2594   18.0713 C   0  0  0  0  0  0  0  0  0  0  0  0
    1.0039  -22.7361   18.3402 C   0  0  0  0  0  0  0  0  0  0  0  0
    1.8717  -21.9243   17.4275 N   0  0  0  0  0  0  0  0  0  0  0  0
    3.1243  -22.2096   16.9361 C   0  0  0  0  0  0  0  0  0  0  0  0
    3.4965  -21.1512   16.1378 C   0  0  0  0  0  0  0  0  0  0  0  0
    4.8694  -21.0174   15.1564 Cl  0  0  0  0  0  0  0  0  0  0  0  0
    2.4743  -20.2071   16.2965 C   0  0  0  0  0  0  0  0  0  0  0  0
    1.5062  -20.6381   17.1180 N   0  0  0  0  0  0  0  0  0  0  0  0
   -0.3305  -24.7393   19.0471 N   0  0  0  0  0  0  0  0  0  0  0  0
   -0.9723  -26.0198   19.1849 C   0  0  0  0  0  0  0  0  0  0  0  0
   -0.7138  -27.1168   18.3696 C   0  0  0  0  0  0  0  0  0  0  0  0
   -1.3626  -28.3676   18.5779 C   0  0  0  0  0  0  0  0  0  0  0  0
   -2.2931  -28.5940   19.5893 C   0  0  0  0  0  0  0  0  0  0  0  0
   -2.8643  -29.8146   19.7385 N   0  0  0  0  0  0  0  0  0  0  0  0
   -3.7722  -29.9842   20.7253 C   0  0  0  0  0  0  0  0  0  0  0  0
   -4.1416  -28.9738   21.5890 C   0  0  0  0  0  0  0  0  0  0  0  0
   -3.5404  -27.7201   21.4339 C   0  0  0  0  0  0  0  0  0  0  0  0
   -2.5896  -27.4981   20.4191 C   0  0  0  0  0  0  0  0  0  0  0  0
   -1.9299  -26.2339   20.2079 C   0  0  0  0  0  0  0  0  0  0  0  0
    1.4605  -22.6358   19.3306 H   0  0  0  0  0  0  0  0  0  0  0  0
    0.0296  -22.2382   18.3183 H   0  0  0  0  0  0  0  0  0  0  0  0
    3.5944  -23.1612   17.1373 H   0  0  0  0  0  0  0  0  0  0  0  0
    2.3832  -19.2315   15.8451 H   0  0  0  0  0  0  0  0  0  0  0  0
   -0.5688  -23.9837   19.6799 H   0  0  0  0  0  0  0  0  0  0  0  0
    0.0057  -27.0392   17.5566 H   0  0  0  0  0  0  0  0  0  0  0  0
   -1.1145  -29.1948   17.9145 H   0  0  0  0  0  0  0  0  0  0  0  0
   -4.2072  -30.9770   20.7998 H   0  0  0  0  0  0  0  0  0  0  0  0
   -4.8786  -29.1535   22.3646 H   0  0  0  0  0  0  0  0  0  0  0  0
   -3.8194  -26.9158   22.1098 H   0  0  0  0  0  0  0  0  0  0  0  0
   -2.1778  -25.4106   20.8758 H   0  0  0  0  0  0  0  0  0  0  0  0
  1  2  2  0
  2  3  1  0
  3  4  1  0
  4  5  1  0
  5  6  2  0
  6  7  1  0
  6  8  1  0
  8  9  2  0
  2 10  1  0
 10 11  1  0
 11 12  2  0
 12 13  1  0
 13 14  2  0
 14 15  1  0
 15 16  2  0
 16 17  1  0
 17 18  2  0
 18 19  1  0
 19 20  2  0
  9  4  1  0
 20 11  1  0
 19 14  1  0
  3 21  1  0
  3 22  1  0
  5 23  1  0
  8 24  1  0
 10 25  1  0
 12 26  1  0
 13 27  1  0
 16 28  1  0
 17 29  1  0
 18 30  1  0
 20 31  1  0
M  END
>  <Energy>  (919) 
52.587668326674262

>  <compound_id>  (919) 
46855

>  <target_id>  (919) 
1

>  <reference_id>  (919) 
122

>  <inspiration_ids>  (919) 
[122, 68]

>  <energy_score>  (919) 
-18.510513344066396

>  <distance_score>  (919) 
15.79834493324731

>  <path>  (919) 
/opt/xchem-fragalysis-2/maxwin/BulkDock/SCRATCH/511023/C46855-P122/C46855-P122.minimised.mol

>  <scratch_subdir>  (919) 
/opt/xchem-fragalysis-2/maxwin/BulkDock/SCRATCH/511023/C46855-P122

>  <fragmenstein_runtime>  (919) 
12.006099462509155

>  <fragmenstein_outcome>  (919) 
too moved

>  <fragmenstein_mode>  (919) 
expansion

>  <fragmenstein_error>  (919) 


$$$$
C46855-P68
     RDKit          3D

 31 33  0  0  0  0  0  0  0  0999 V2000
    3.8288  -15.8222   16.2332 O   0  0  0  0  0  0  0  0  0  0  0  0
    2.7928  -15.7909   16.8171 C   0  0  0  0  0  0  0  0  0  0  0  0
    1.8403  -14.0211   16.7719 C   0  0  0  0  0  0  0  0  0  0  0  0
    1.9952  -12.2319   15.8061 N   0  0  0  0  0  0  0  0  0  0  0  0
    3.0867  -11.0712   16.2371 C   0  0  0  0  0  0  0  0  0  0  0  0
    2.9145   -9.9274   15.5311 C   0  0  0  0  0  0  0  0  0  0  0  0
    3.7539   -8.4679   15.6741 Cl  0  0  0  0  0  0  0  0  0  0  0  0
    1.8792  -10.2124   14.6519 C   0  0  0  0  0  0  0  0  0  0  0  0
    1.3746  -11.4580   14.6799 N   0  0  0  0  0  0  0  0  0  0  0  0
    2.0489  -16.9897   17.4986 N   0  0  0  0  0  0  0  0  0  0  0  0
    2.3912  -18.6622   17.5134 C   0  0  0  0  0  0  0  0  0  0  0  0
    1.4107  -19.5760   18.0620 C   0  0  0  0  0  0  0  0  0  0  0  0
    1.3857  -20.9921   18.2189 C   0  0  0  0  0  0  0  0  0  0  0  0
    2.2716  -21.7415   17.5371 C   0  0  0  0  0  0  0  0  0  0  0  0
    2.1203  -23.0888   17.6134 N   0  0  0  0  0  0  0  0  0  0  0  0
    2.8971  -23.8268   16.8145 C   0  0  0  0  0  0  0  0  0  0  0  0
    3.8130  -23.2518   15.9523 C   0  0  0  0  0  0  0  0  0  0  0  0
    3.9531  -21.8423   15.9125 C   0  0  0  0  0  0  0  0  0  0  0  0
    3.1691  -20.9972   16.7201 C   0  0  0  0  0  0  0  0  0  0  0  0
    3.2200  -19.4609   16.7199 C   0  0  0  0  0  0  0  0  0  0  0  0
    2.4364  -13.7381   17.6770 H   0  0  0  0  0  0  0  0  0  0  0  0
    0.8192  -14.0137   17.1539 H   0  0  0  0  0  0  0  0  0  0  0  0
    3.7166  -11.3807   17.0427 H   0  0  0  0  0  0  0  0  0  0  0  0
    1.4646   -9.5386   13.9137 H   0  0  0  0  0  0  0  0  0  0  0  0
    1.2376  -16.6365   17.9883 H   0  0  0  0  0  0  0  0  0  0  0  0
    0.3848  -19.2571   18.0961 H   0  0  0  0  0  0  0  0  0  0  0  0
    0.5566  -21.4738   18.7297 H   0  0  0  0  0  0  0  0  0  0  0  0
    2.7625  -24.9008   16.8749 H   0  0  0  0  0  0  0  0  0  0  0  0
    4.4205  -23.8754   15.3048 H   0  0  0  0  0  0  0  0  0  0  0  0
    4.6665  -21.4036   15.2186 H   0  0  0  0  0  0  0  0  0  0  0  0
    3.9105  -18.9820   16.0268 H   0  0  0  0  0  0  0  0  0  0  0  0
  1  2  2  0
  2  3  1  0
  3  4  1  0
  4  5  1  0
  5  6  2  0
  6  7  1  0
  6  8  1  0
  8  9  2  0
  2 10  1  0
 10 11  1  0
 11 12  2  0
 12 13  1  0
 13 14  2  0
 14 15  1  0
 15 16  2  0
 16 17  1  0
 17 18  2  0
 18 19  1  0
 19 20  2  0
  9  4  1  0
 20 11  1  0
 19 14  1  0
  3 21  1  0
  3 22  1  0
  5 23  1  0
  8 24  1  0
 10 25  1  0
 12 26  1  0
 13 27  1  0
 16 28  1  0
 17 29  1  0
 18 30  1  0
 20 31  1  0
M  END
>  <Energy>  (920) 
349.31271489724617

>  <compound_id>  (920) 
46855

>  <target_id>  (920) 
1

>  <reference_id>  (920) 
68

>  <inspiration_ids>  (920) 
[122, 68]

>  <energy_score>  (920) 
278.2145332265082

>  <distance_score>  (920) 
18.28427410774674

>  <path>  (920) 
/opt/xchem-fragalysis-2/maxwin/BulkDock/SCRATCH/511023/C46855-P68/C46855-P68.minimised.mol

>  <scratch_subdir>  (920) 
/opt/xchem-fragalysis-2/maxwin/BulkDock/SCRATCH/511023/C46855-P68

>  <fragmenstein_runtime>  (920) 
10.883988380432129

>  <fragmenstein_outcome>  (920) 
too moved

>  <fragmenstein_mode>  (920) 
expansion

>  <fragmenstein_error>  (920) 


$$$$
C46856-P122
     RDKit          3D

 28 30  0  0  0  0  0  0  0  0999 V2000
    0.8998  -18.5203   18.0595 O   0  0  0  0  0  0  0  0  0  0  0  0
    1.6283  -18.6955   17.1368 C   0  0  0  0  0  0  0  0  0  0  0  0
    2.2031  -17.1580   16.5479 C   0  0  0  0  0  0  0  0  0  0  0  0
    2.7908  -15.5119   17.3871 N   0  0  0  0  0  0  0  0  0  0  0  0
    4.1470  -15.2170   17.9976 C   0  0  0  0  0  0  0  0  0  0  0  0
    4.2295  -14.0483   18.6632 C   0  0  0  0  0  0  0  0  0  0  0  0
    5.2220  -13.0024   19.7180 Cl  0  0  0  0  0  0  0  0  0  0  0  0
    3.0770  -13.6955   18.2232 C   0  0  0  0  0  0  0  0  0  0  0  0
    2.0608  -14.4947   17.8623 N   0  0  0  0  0  0  0  0  0  0  0  0
    2.0576  -19.9486   16.4907 N   0  0  0  0  0  0  0  0  0  0  0  0
    1.7924  -21.3715   16.8530 C   0  0  0  0  0  0  0  0  0  0  0  0
    1.8182  -21.7355   18.2476 C   0  0  0  0  0  0  0  0  0  0  0  0
    1.3270  -22.9505   18.8589 C   0  0  0  0  0  0  0  0  0  0  0  0
    0.7383  -23.8824   17.9828 C   0  0  0  0  0  0  0  0  0  0  0  0
    0.1624  -25.0565   18.2941 N   0  0  0  0  0  0  0  0  0  0  0  0
   -0.4155  -25.7838   16.9243 S   0  0  0  0  0  0  0  0  0  0  0  0
    0.1057  -24.5631   15.8302 C   0  0  0  0  0  0  0  0  0  0  0  0
    0.7405  -23.5656   16.5416 C   0  0  0  0  0  0  0  0  0  0  0  0
    1.2864  -22.3591   15.9527 C   0  0  0  0  0  0  0  0  0  0  0  0
    3.1006  -17.3499   15.9160 H   0  0  0  0  0  0  0  0  0  0  0  0
    2.1522  -17.1862   17.6349 H   0  0  0  0  0  0  0  0  0  0  0  0
    4.8957  -15.9384   17.9469 H   0  0  0  0  0  0  0  0  0  0  0  0
    3.1586  -12.6079   18.0187 H   0  0  0  0  0  0  0  0  0  0  0  0
    2.6169  -19.7267   15.6759 H   0  0  0  0  0  0  0  0  0  0  0  0
    2.2527  -21.0076   18.9418 H   0  0  0  0  0  0  0  0  0  0  0  0
    1.3832  -23.1030   19.9303 H   0  0  0  0  0  0  0  0  0  0  0  0
   -0.0837  -24.6391   14.7699 H   0  0  0  0  0  0  0  0  0  0  0  0
    1.1922  -22.1571   14.8913 H   0  0  0  0  0  0  0  0  0  0  0  0
  1  2  2  0
  2  3  1  0
  3  4  1  0
  4  5  1  0
  5  6  2  0
  6  7  1  0
  6  8  1  0
  8  9  2  0
  2 10  1  0
 10 11  1  0
 11 12  1  0
 12 13  2  0
 13 14  1  0
 14 15  2  0
 15 16  1  0
 16 17  1  0
 17 18  2  0
 18 19  1  0
  9  4  1  0
 19 11  2  0
 18 14  1  0
  3 20  1  0
  3 21  1  0
  5 22  1  0
  8 23  1  0
 10 24  1  0
 12 25  1  0
 13 26  1  0
 17 27  1  0
 19 28  1  0
M  END
>  <Energy>  (921) 
275.85563028174585

>  <compound_id>  (921) 
46856

>  <target_id>  (921) 
1

>  <reference_id>  (921) 
122

>  <inspiration_ids>  (921) 
[122, 68]

>  <energy_score>  (921) 
183.18675843434858

>  <distance_score>  (921) 
17.14063727590145

>  <path>  (921) 
/opt/xchem-fragalysis-2/maxwin/BulkDock/SCRATCH/511023/C46856-P122/C46856-P122.minimised.mol

>  <scratch_subdir>  (921) 
/opt/xchem-fragalysis-2/maxwin/BulkDock/SCRATCH/511023/C46856-P122

>  <fragmenstein_runtime>  (921) 
7.739584445953369

>  <fragmenstein_outcome>  (921) 
too moved

>  <fragmenstein_mode>  (921) 
expansion

>  <fragmenstein_error>  (921) 


$$$$
C46856-P68
     RDKit          3D

 28 30  0  0  0  0  0  0  0  0999 V2000
   -4.7889  -19.5915   22.7204 O   0  0  0  0  0  0  0  0  0  0  0  0
   -3.6944  -20.0632   22.8825 C   0  0  0  0  0  0  0  0  0  0  0  0
   -2.4391  -19.1207   23.0021 C   0  0  0  0  0  0  0  0  0  0  0  0
   -2.5334  -17.6599   22.6706 N   0  0  0  0  0  0  0  0  0  0  0  0
   -3.2175  -17.0389   21.6512 C   0  0  0  0  0  0  0  0  0  0  0  0
   -2.8711  -15.7067   21.6690 C   0  0  0  0  0  0  0  0  0  0  0  0
   -3.4782  -14.4626   20.6981 Cl  0  0  0  0  0  0  0  0  0  0  0  0
   -1.9284  -15.5952   22.6973 C   0  0  0  0  0  0  0  0  0  0  0  0
   -1.6894  -16.7717   23.2908 N   0  0  0  0  0  0  0  0  0  0  0  0
   -3.2608  -21.4878   23.0275 N   0  0  0  0  0  0  0  0  0  0  0  0
   -4.0297  -22.7050   23.1110 C   0  0  0  0  0  0  0  0  0  0  0  0
   -5.4572  -22.7400   23.1319 C   0  0  0  0  0  0  0  0  0  0  0  0
   -6.2501  -23.9328   23.2723 C   0  0  0  0  0  0  0  0  0  0  0  0
   -5.5395  -25.1496   23.4053 C   0  0  0  0  0  0  0  0  0  0  0  0
   -6.0335  -26.3825   23.5869 N   0  0  0  0  0  0  0  0  0  0  0  0
   -4.7990  -27.4696   23.7522 S   0  0  0  0  0  0  0  0  0  0  0  0
   -3.5241  -26.3621   23.4972 C   0  0  0  0  0  0  0  0  0  0  0  0
   -4.0770  -25.1093   23.3557 C   0  0  0  0  0  0  0  0  0  0  0  0
   -3.3017  -23.9316   23.2068 C   0  0  0  0  0  0  0  0  0  0  0  0
   -2.1063  -19.1573   24.0462 H   0  0  0  0  0  0  0  0  0  0  0  0
   -1.6435  -19.5067   22.3576 H   0  0  0  0  0  0  0  0  0  0  0  0
   -3.9106  -17.5913   21.0315 H   0  0  0  0  0  0  0  0  0  0  0  0
   -1.4121  -14.7141   23.0508 H   0  0  0  0  0  0  0  0  0  0  0  0
   -2.2473  -21.5263   23.0666 H   0  0  0  0  0  0  0  0  0  0  0  0
   -6.0028  -21.7984   23.0479 H   0  0  0  0  0  0  0  0  0  0  0  0
   -7.3331  -23.8997   23.2914 H   0  0  0  0  0  0  0  0  0  0  0  0
   -2.4885  -26.6698   23.5026 H   0  0  0  0  0  0  0  0  0  0  0  0
   -2.2180  -23.9556   23.1899 H   0  0  0  0  0  0  0  0  0  0  0  0
  1  2  2  0
  2  3  1  0
  3  4  1  0
  4  5  1  0
  5  6  2  0
  6  7  1  0
  6  8  1  0
  8  9  2  0
  2 10  1  0
 10 11  1  0
 11 12  1  0
 12 13  2  0
 13 14  1  0
 14 15  2  0
 15 16  1  0
 16 17  1  0
 17 18  2  0
 18 19  1  0
  9  4  1  0
 19 11  2  0
 18 14  1  0
  3 20  1  0
  3 21  1  0
  5 22  1  0
  8 23  1  0
 10 24  1  0
 12 25  1  0
 13 26  1  0
 17 27  1  0
 19 28  1  0
M  END
>  <Energy>  (922) 
41.631647337231655

>  <compound_id>  (922) 
46856

>  <target_id>  (922) 
1

>  <reference_id>  (922) 
68

>  <inspiration_ids>  (922) 
[122, 68]

>  <energy_score>  (922) 
-51.037224510171654

>  <distance_score>  (922) 
16.229098055624288

>  <path>  (922) 
/opt/xchem-fragalysis-2/maxwin/BulkDock/SCRATCH/511023/C46856-P68/C46856-P68.minimised.mol

>  <scratch_subdir>  (922) 
/opt/xchem-fragalysis-2/maxwin/BulkDock/SCRATCH/511023/C46856-P68

>  <fragmenstein_runtime>  (922) 
16.49311661720276

>  <fragmenstein_outcome>  (922) 
too moved

>  <fragmenstein_mode>  (922) 
expansion

>  <fragmenstein_error>  (922) 


$$$$
C46857-P122
     RDKit          3D

 29 31  0  0  0  0  0  0  0  0999 V2000
    5.5225  -24.4080   17.3178 O   0  0  0  0  0  0  0  0  0  0  0  0
    4.6308  -24.3544   16.5081 C   0  0  0  0  0  0  0  0  0  0  0  0
    4.5070  -23.0791   15.5785 C   0  0  0  0  0  0  0  0  0  0  0  0
    5.5058  -21.9417   15.5966 N   0  0  0  0  0  0  0  0  0  0  0  0
    6.7227  -21.7929   16.2230 C   0  0  0  0  0  0  0  0  0  0  0  0
    7.2902  -20.6216   15.7618 C   0  0  0  0  0  0  0  0  0  0  0  0
    8.7830  -19.9483   16.1751 Cl  0  0  0  0  0  0  0  0  0  0  0  0
    6.3624  -20.1061   14.8486 C   0  0  0  0  0  0  0  0  0  0  0  0
    5.2589  -20.8616   14.7816 N   0  0  0  0  0  0  0  0  0  0  0  0
    3.4868  -25.3060   16.2436 N   0  0  0  0  0  0  0  0  0  0  0  0
    3.0790  -26.4802   16.9268 C   0  0  0  0  0  0  0  0  0  0  0  0
    3.6188  -26.8360   18.2457 C   0  0  0  0  0  0  0  0  0  0  0  0
    3.0548  -27.8092   18.9962 C   0  0  0  0  0  0  0  0  0  0  0  0
    1.9419  -28.5169   18.5439 N   0  0  0  0  0  0  0  0  0  0  0  0
    1.2449  -29.4781   19.2018 N   0  0  0  0  0  0  0  0  0  0  0  0
    0.2174  -29.7665   18.4004 C   0  0  0  0  0  0  0  0  0  0  0  0
    0.2724  -29.0561   17.1868 C   0  0  0  0  0  0  0  0  0  0  0  0
    1.4018  -28.2643   17.2842 C   0  0  0  0  0  0  0  0  0  0  0  0
    2.0379  -27.2464   16.4651 C   0  0  0  0  0  0  0  0  0  0  0  0
    3.5484  -22.5973   15.8056 H   0  0  0  0  0  0  0  0  0  0  0  0
    4.5114  -23.4210   14.5370 H   0  0  0  0  0  0  0  0  0  0  0  0
    7.0927  -22.5360   16.9147 H   0  0  0  0  0  0  0  0  0  0  0  0
    6.4236  -19.2121   14.2404 H   0  0  0  0  0  0  0  0  0  0  0  0
    2.9702  -24.9899   15.4299 H   0  0  0  0  0  0  0  0  0  0  0  0
    4.4808  -26.2949   18.6198 H   0  0  0  0  0  0  0  0  0  0  0  0
    3.4175  -28.0839   19.9779 H   0  0  0  0  0  0  0  0  0  0  0  0
   -0.5195  -30.4889   18.7280 H   0  0  0  0  0  0  0  0  0  0  0  0
   -0.4260  -29.0969   16.3639 H   0  0  0  0  0  0  0  0  0  0  0  0
    1.5762  -27.0333   15.5063 H   0  0  0  0  0  0  0  0  0  0  0  0
  1  2  2  0
  2  3  1  0
  3  4  1  0
  4  5  1  0
  5  6  2  0
  6  7  1  0
  6  8  1  0
  8  9  2  0
  2 10  1  0
 10 11  1  0
 11 12  1  0
 12 13  2  0
 13 14  1  0
 14 15  1  0
 15 16  2  0
 16 17  1  0
 17 18  2  0
 18 19  1  0
  9  4  1  0
 19 11  2  0
 18 14  1  0
  3 20  1  0
  3 21  1  0
  5 22  1  0
  8 23  1  0
 10 24  1  0
 12 25  1  0
 13 26  1  0
 16 27  1  0
 17 28  1  0
 19 29  1  0
M  END
>  <Energy>  (923) 
48.620867827482634

>  <compound_id>  (923) 
46857

>  <target_id>  (923) 
1

>  <reference_id>  (923) 
122

>  <inspiration_ids>  (923) 
[122, 68]

>  <energy_score>  (923) 
-21.114383234002105

>  <distance_score>  (923) 
16.580980509223018

>  <path>  (923) 
/opt/xchem-fragalysis-2/maxwin/BulkDock/SCRATCH/511023/C46857-P122/C46857-P122.minimised.mol

>  <scratch_subdir>  (923) 
/opt/xchem-fragalysis-2/maxwin/BulkDock/SCRATCH/511023/C46857-P122

>  <fragmenstein_runtime>  (923) 
9.376189708709717

>  <fragmenstein_outcome>  (923) 
too moved

>  <fragmenstein_mode>  (923) 
expansion

>  <fragmenstein_error>  (923) 


$$$$
C46857-P68
     RDKit          3D

 29 31  0  0  0  0  0  0  0  0999 V2000
    1.8681  -24.2749   16.1189 O   0  0  0  0  0  0  0  0  0  0  0  0
    2.1188  -24.0266   17.2658 C   0  0  0  0  0  0  0  0  0  0  0  0
    3.0249  -22.7836   17.6566 C   0  0  0  0  0  0  0  0  0  0  0  0
    3.4446  -21.7105   16.6834 N   0  0  0  0  0  0  0  0  0  0  0  0
    2.9507  -20.4116   16.6493 C   0  0  0  0  0  0  0  0  0  0  0  0
    3.8718  -19.6279   15.9940 C   0  0  0  0  0  0  0  0  0  0  0  0
    3.8812  -17.9625   15.7508 Cl  0  0  0  0  0  0  0  0  0  0  0  0
    4.8918  -20.5128   15.6327 C   0  0  0  0  0  0  0  0  0  0  0  0
    4.6981  -21.7510   16.1142 N   0  0  0  0  0  0  0  0  0  0  0  0
    1.6985  -24.7197   18.5248 N   0  0  0  0  0  0  0  0  0  0  0  0
    0.8178  -25.8011   18.7350 C   0  0  0  0  0  0  0  0  0  0  0  0
    0.8718  -26.3755   20.1002 C   0  0  0  0  0  0  0  0  0  0  0  0
    0.0287  -27.3431   20.5052 C   0  0  0  0  0  0  0  0  0  0  0  0
   -0.9354  -27.8370   19.6388 N   0  0  0  0  0  0  0  0  0  0  0  0
   -1.8747  -28.7763   19.9131 N   0  0  0  0  0  0  0  0  0  0  0  0
   -2.5726  -28.8981   18.7849 C   0  0  0  0  0  0  0  0  0  0  0  0
   -2.0933  -28.0507   17.7676 C   0  0  0  0  0  0  0  0  0  0  0  0
   -1.0313  -27.3661   18.3272 C   0  0  0  0  0  0  0  0  0  0  0  0
   -0.0987  -26.3346   17.8829 C   0  0  0  0  0  0  0  0  0  0  0  0
    3.9718  -23.1937   18.0235 H   0  0  0  0  0  0  0  0  0  0  0  0
    2.5199  -22.2379   18.4621 H   0  0  0  0  0  0  0  0  0  0  0  0
    2.0107  -20.1677   17.1203 H   0  0  0  0  0  0  0  0  0  0  0  0
    5.7987  -20.3042   15.0828 H   0  0  0  0  0  0  0  0  0  0  0  0
    2.1690  -24.2834   19.3223 H   0  0  0  0  0  0  0  0  0  0  0  0
    1.6419  -26.0233   20.7740 H   0  0  0  0  0  0  0  0  0  0  0  0
    0.0482  -27.7853   21.4920 H   0  0  0  0  0  0  0  0  0  0  0  0
   -3.3967  -29.5995   18.7466 H   0  0  0  0  0  0  0  0  0  0  0  0
   -2.4714  -27.9467   16.7606 H   0  0  0  0  0  0  0  0  0  0  0  0
   -0.1963  -25.9526   16.8703 H   0  0  0  0  0  0  0  0  0  0  0  0
  1  2  2  0
  2  3  1  0
  3  4  1  0
  4  5  1  0
  5  6  2  0
  6  7  1  0
  6  8  1  0
  8  9  2  0
  2 10  1  0
 10 11  1  0
 11 12  1  0
 12 13  2  0
 13 14  1  0
 14 15  1  0
 15 16  2  0
 16 17  1  0
 17 18  2  0
 18 19  1  0
  9  4  1  0
 19 11  2  0
 18 14  1  0
  3 20  1  0
  3 21  1  0
  5 22  1  0
  8 23  1  0
 10 24  1  0
 12 25  1  0
 13 26  1  0
 16 27  1  0
 17 28  1  0
 19 29  1  0
M  END
>  <Energy>  (924) 
51.545131179743478

>  <compound_id>  (924) 
46857

>  <target_id>  (924) 
1

>  <reference_id>  (924) 
68

>  <inspiration_ids>  (924) 
[122, 68]

>  <energy_score>  (924) 
-18.190119881740372

>  <distance_score>  (924) 
15.958986090184139

>  <path>  (924) 
/opt/xchem-fragalysis-2/maxwin/BulkDock/SCRATCH/511023/C46857-P68/C46857-P68.minimised.mol

>  <scratch_subdir>  (924) 
/opt/xchem-fragalysis-2/maxwin/BulkDock/SCRATCH/511023/C46857-P68

>  <fragmenstein_runtime>  (924) 
11.056432008743286

>  <fragmenstein_outcome>  (924) 
too moved

>  <fragmenstein_mode>  (924) 
expansion

>  <fragmenstein_error>  (924) 


$$$$
C46858-P122
     RDKit          3D

 31 33  0  0  0  0  0  0  0  0999 V2000
    3.7501  -13.1026   20.6590 O   0  0  0  0  0  0  0  0  0  0  0  0
    4.7535  -13.1847   20.0081 C   0  0  0  0  0  0  0  0  0  0  0  0
    6.0038  -12.1458   20.3081 C   0  0  0  0  0  0  0  0  0  0  0  0
    7.4425  -11.9629   20.9609 C   0  0  0  0  0  0  0  0  0  0  0  0
    8.4220  -10.9112   20.6093 N   0  0  0  0  0  0  0  0  0  0  0  0
    9.6467  -10.8113   21.2450 C   0  0  0  0  0  0  0  0  0  0  0  0
    9.8992   -9.4681   21.3673 C   0  0  0  0  0  0  0  0  0  0  0  0
   11.0851   -8.7088   22.3000 Cl  0  0  0  0  0  0  0  0  0  0  0  0
    8.8742   -8.8586   20.6375 C   0  0  0  0  0  0  0  0  0  0  0  0
    8.0684   -9.7525   20.0432 N   0  0  0  0  0  0  0  0  0  0  0  0
    5.0823  -14.0344   18.8373 N   0  0  0  0  0  0  0  0  0  0  0  0
    4.0713  -15.1887   17.8422 C   0  0  0  0  0  0  0  0  0  0  0  0
    2.6907  -15.6816   17.8765 C   0  0  0  0  0  0  0  0  0  0  0  0
    2.0702  -17.3341   17.1321 C   0  0  0  0  0  0  0  0  0  0  0  0
    2.7452  -18.2992   16.0936 C   0  0  0  0  0  0  0  0  0  0  0  0
    2.5747  -19.5783   15.7461 N   0  0  0  0  0  0  0  0  0  0  0  0
    3.7234  -19.9801   14.6089 S   0  0  0  0  0  0  0  0  0  0  0  0
    4.6820  -18.4992   14.5911 C   0  0  0  0  0  0  0  0  0  0  0  0
    4.1465  -17.5597   15.4445 C   0  0  0  0  0  0  0  0  0  0  0  0
    4.6879  -16.0836   16.3290 C   0  0  0  0  0  0  0  0  0  0  0  0
    5.4409  -11.5295   20.9930 H   0  0  0  0  0  0  0  0  0  0  0  0
    6.0511  -11.6101   19.3698 H   0  0  0  0  0  0  0  0  0  0  0  0
    8.0607  -12.8587   20.9355 H   0  0  0  0  0  0  0  0  0  0  0  0
    7.2799  -11.6759   22.0083 H   0  0  0  0  0  0  0  0  0  0  0  0
   10.1233  -11.6708   21.6940 H   0  0  0  0  0  0  0  0  0  0  0  0
    8.6735   -7.8022   20.5325 H   0  0  0  0  0  0  0  0  0  0  0  0
    5.9960  -13.9082   18.6105 H   0  0  0  0  0  0  0  0  0  0  0  0
    2.1134  -15.1076   18.5648 H   0  0  0  0  0  0  0  0  0  0  0  0
    1.3524  -17.9045   17.7532 H   0  0  0  0  0  0  0  0  0  0  0  0
    5.5890  -18.4701   14.0077 H   0  0  0  0  0  0  0  0  0  0  0  0
    3.6173  -15.9382   15.9848 H   0  0  0  0  0  0  0  0  0  0  0  0
  1  2  2  0
  2  3  1  0
  3  4  1  0
  4  5  1  0
  5  6  1  0
  6  7  2  0
  7  8  1  0
  7  9  1  0
  9 10  2  0
  2 11  1  0
 11 12  1  0
 12 13  1  0
 13 14  2  0
 14 15  1  0
 15 16  2  0
 16 17  1  0
 17 18  1  0
 18 19  2  0
 19 20  1  0
 10  5  1  0
 20 12  2  0
 19 15  1  0
  3 21  1  0
  3 22  1  0
  4 23  1  0
  4 24  1  0
  6 25  1  0
  9 26  1  0
 11 27  1  0
 13 28  1  0
 14 29  1  0
 18 30  1  0
 20 31  1  0
M  END
>  <Energy>  (925) 
385.71902031988452

>  <compound_id>  (925) 
46858

>  <target_id>  (925) 
1

>  <reference_id>  (925) 
122

>  <inspiration_ids>  (925) 
[122, 68]

>  <energy_score>  (925) 
319.3906061344145

>  <distance_score>  (925) 
20.419139994935588

>  <path>  (925) 
/opt/xchem-fragalysis-2/maxwin/BulkDock/SCRATCH/511023/C46858-P122/C46858-P122.minimised.mol

>  <scratch_subdir>  (925) 
/opt/xchem-fragalysis-2/maxwin/BulkDock/SCRATCH/511023/C46858-P122

>  <fragmenstein_runtime>  (925) 
13.74558424949646

>  <fragmenstein_outcome>  (925) 
too moved

>  <fragmenstein_mode>  (925) 
expansion

>  <fragmenstein_error>  (925) 


$$$$
C46858-P68
     RDKit          3D

 31 33  0  0  0  0  0  0  0  0999 V2000
    1.4872  -24.0558   16.8665 O   0  0  0  0  0  0  0  0  0  0  0  0
    1.1319  -23.3514   17.7744 C   0  0  0  0  0  0  0  0  0  0  0  0
    1.7303  -21.8722   17.8676 C   0  0  0  0  0  0  0  0  0  0  0  0
    2.6218  -21.4752   16.6332 C   0  0  0  0  0  0  0  0  0  0  0  0
    3.2639  -20.1470   16.4715 N   0  0  0  0  0  0  0  0  0  0  0  0
    4.4074  -19.9129   15.7189 C   0  0  0  0  0  0  0  0  0  0  0  0
    4.5871  -18.5538   15.6436 C   0  0  0  0  0  0  0  0  0  0  0  0
    5.8401  -17.7227   14.8753 Cl  0  0  0  0  0  0  0  0  0  0  0  0
    3.5068  -18.0260   16.3649 C   0  0  0  0  0  0  0  0  0  0  0  0
    2.7271  -18.9814   16.9148 N   0  0  0  0  0  0  0  0  0  0  0  0
    0.1733  -23.6051   18.8706 N   0  0  0  0  0  0  0  0  0  0  0  0
   -0.5514  -24.8001   19.2371 C   0  0  0  0  0  0  0  0  0  0  0  0
   -1.4137  -24.7177   20.3915 C   0  0  0  0  0  0  0  0  0  0  0  0
   -2.1966  -25.7866   20.9353 C   0  0  0  0  0  0  0  0  0  0  0  0
   -2.0900  -27.0186   20.2578 C   0  0  0  0  0  0  0  0  0  0  0  0
   -2.6917  -28.1735   20.5721 N   0  0  0  0  0  0  0  0  0  0  0  0
   -2.2521  -29.3517   19.4949 S   0  0  0  0  0  0  0  0  0  0  0  0
   -1.2379  -28.3664   18.5311 C   0  0  0  0  0  0  0  0  0  0  0  0
   -1.2273  -27.0998   19.0706 C   0  0  0  0  0  0  0  0  0  0  0  0
   -0.4579  -26.0281   18.5337 C   0  0  0  0  0  0  0  0  0  0  0  0
    2.3324  -21.8289   18.7791 H   0  0  0  0  0  0  0  0  0  0  0  0
    0.9021  -21.1682   17.9794 H   0  0  0  0  0  0  0  0  0  0  0  0
    3.4515  -22.1931   16.5861 H   0  0  0  0  0  0  0  0  0  0  0  0
    2.0426  -21.6144   15.7129 H   0  0  0  0  0  0  0  0  0  0  0  0
    4.9569  -20.7374   15.2900 H   0  0  0  0  0  0  0  0  0  0  0  0
    3.2601  -16.9890   16.5436 H   0  0  0  0  0  0  0  0  0  0  0  0
    0.0546  -22.7559   19.4116 H   0  0  0  0  0  0  0  0  0  0  0  0
   -1.4764  -23.7612   20.9146 H   0  0  0  0  0  0  0  0  0  0  0  0
   -2.8166  -25.6619   21.8133 H   0  0  0  0  0  0  0  0  0  0  0  0
   -0.7184  -28.7563   17.6679 H   0  0  0  0  0  0  0  0  0  0  0  0
    0.1698  -26.1385   17.6567 H   0  0  0  0  0  0  0  0  0  0  0  0
  1  2  2  0
  2  3  1  0
  3  4  1  0
  4  5  1  0
  5  6  1  0
  6  7  2  0
  7  8  1  0
  7  9  1  0
  9 10  2  0
  2 11  1  0
 11 12  1  0
 12 13  1  0
 13 14  2  0
 14 15  1  0
 15 16  2  0
 16 17  1  0
 17 18  1  0
 18 19  2  0
 19 20  1  0
 10  5  1  0
 20 12  2  0
 19 15  1  0
  3 21  1  0
  3 22  1  0
  4 23  1  0
  4 24  1  0
  6 25  1  0
  9 26  1  0
 11 27  1  0
 13 28  1  0
 14 29  1  0
 18 30  1  0
 20 31  1  0
M  END
>  <Energy>  (926) 
11.258015033808727

>  <compound_id>  (926) 
46858

>  <target_id>  (926) 
1

>  <reference_id>  (926) 
68

>  <inspiration_ids>  (926) 
[122, 68]

>  <energy_score>  (926) 
-55.070399151657284

>  <distance_score>  (926) 
15.423593592495555

>  <path>  (926) 
/opt/xchem-fragalysis-2/maxwin/BulkDock/SCRATCH/511023/C46858-P68/C46858-P68.minimised.mol

>  <scratch_subdir>  (926) 
/opt/xchem-fragalysis-2/maxwin/BulkDock/SCRATCH/511023/C46858-P68

>  <fragmenstein_runtime>  (926) 
14.444111585617065

>  <fragmenstein_outcome>  (926) 
too moved

>  <fragmenstein_mode>  (926) 
expansion

>  <fragmenstein_error>  (926) 


$$$$
C46859-P122
     RDKit          3D

 34 36  0  0  0  0  0  0  0  0999 V2000
   -2.0997  -16.6096   19.1944 O   0  0  0  0  0  0  0  0  0  0  0  0
   -1.2902  -17.0430   19.9741 C   0  0  0  0  0  0  0  0  0  0  0  0
    0.5079  -16.2490   19.8135 C   0  0  0  0  0  0  0  0  0  0  0  0
    2.0187  -15.2006   18.7376 C   0  0  0  0  0  0  0  0  0  0  0  0
    2.1978  -13.9358   17.9458 N   0  0  0  0  0  0  0  0  0  0  0  0
    3.4103  -12.5887   17.9238 C   0  0  0  0  0  0  0  0  0  0  0  0
    3.1900  -11.6902   16.5327 C   0  0  0  0  0  0  0  0  0  0  0  0
    4.0390  -10.6488   15.1272 Cl  0  0  0  0  0  0  0  0  0  0  0  0
    1.8020  -12.6786   15.8000 C   0  0  0  0  0  0  0  0  0  0  0  0
    1.2874  -13.7457   16.8153 N   0  0  0  0  0  0  0  0  0  0  0  0
   -1.4038  -18.1457   20.9607 N   0  0  0  0  0  0  0  0  0  0  0  0
   -2.5437  -19.1511   21.2286 C   0  0  0  0  0  0  0  0  0  0  0  0
   -3.6568  -19.3178   20.4076 C   0  0  0  0  0  0  0  0  0  0  0  0
   -4.4550  -20.5188   20.4533 C   0  0  0  0  0  0  0  0  0  0  0  0
   -4.1967  -21.6213   21.2832 C   0  0  0  0  0  0  0  0  0  0  0  0
   -4.9332  -22.7684   21.2197 N   0  0  0  0  0  0  0  0  0  0  0  0
   -4.5877  -23.8171   22.0033 C   0  0  0  0  0  0  0  0  0  0  0  0
   -3.5337  -23.7722   22.8892 C   0  0  0  0  0  0  0  0  0  0  0  0
   -2.7988  -22.5819   22.9696 C   0  0  0  0  0  0  0  0  0  0  0  0
   -3.1103  -21.4713   22.1549 C   0  0  0  0  0  0  0  0  0  0  0  0
   -2.3327  -20.2472   22.1378 C   0  0  0  0  0  0  0  0  0  0  0  0
   -0.3000  -15.5923   19.4814 H   0  0  0  0  0  0  0  0  0  0  0  0
    0.6973  -16.1108   20.8543 H   0  0  0  0  0  0  0  0  0  0  0  0
    2.6974  -15.7934   18.1591 H   0  0  0  0  0  0  0  0  0  0  0  0
    2.4981  -14.8092   19.6227 H   0  0  0  0  0  0  0  0  0  0  0  0
    4.1198  -12.7950   18.7196 H   0  0  0  0  0  0  0  0  0  0  0  0
    1.5325  -12.7091   14.7447 H   0  0  0  0  0  0  0  0  0  0  0  0
   -0.5560  -18.1857   21.5101 H   0  0  0  0  0  0  0  0  0  0  0  0
   -3.8878  -18.5664   19.6535 H   0  0  0  0  0  0  0  0  0  0  0  0
   -5.2876  -20.5984   19.7541 H   0  0  0  0  0  0  0  0  0  0  0  0
   -5.2008  -24.7061   21.8906 H   0  0  0  0  0  0  0  0  0  0  0  0
   -3.2817  -24.6307   23.5008 H   0  0  0  0  0  0  0  0  0  0  0  0
   -1.9543  -22.5342   23.6533 H   0  0  0  0  0  0  0  0  0  0  0  0
   -1.4546  -20.2202   22.7830 H   0  0  0  0  0  0  0  0  0  0  0  0
  1  2  2  0
  2  3  1  0
  3  4  1  0
  4  5  1  0
  5  6  1  0
  6  7  2  0
  7  8  1  0
  7  9  1  0
  9 10  2  0
  2 11  1  0
 11 12  1  0
 12 13  2  0
 13 14  1  0
 14 15  2  0
 15 16  1  0
 16 17  2  0
 17 18  1  0
 18 19  2  0
 19 20  1  0
 20 21  2  0
 10  5  1  0
 21 12  1  0
 20 15  1  0
  3 22  1  0
  3 23  1  0
  4 24  1  0
  4 25  1  0
  6 26  1  0
  9 27  1  0
 11 28  1  0
 13 29  1  0
 14 30  1  0
 17 31  1  0
 18 32  1  0
 19 33  1  0
 21 34  1  0
M  END
>  <Energy>  (927) 
434.52257785564228

>  <compound_id>  (927) 
46859

>  <target_id>  (927) 
1

>  <reference_id>  (927) 
122

>  <inspiration_ids>  (927) 
[122, 68]

>  <energy_score>  (927) 
388.58274264207546

>  <distance_score>  (927) 
16.048133148042652

>  <path>  (927) 
/opt/xchem-fragalysis-2/maxwin/BulkDock/SCRATCH/511023/C46859-P122/C46859-P122.minimised.mol

>  <scratch_subdir>  (927) 
/opt/xchem-fragalysis-2/maxwin/BulkDock/SCRATCH/511023/C46859-P122

>  <fragmenstein_runtime>  (927) 
9.023538589477539

>  <fragmenstein_outcome>  (927) 
too moved

>  <fragmenstein_mode>  (927) 
expansion

>  <fragmenstein_error>  (927) 


$$$$
C46859-P68
     RDKit          3D

 34 36  0  0  0  0  0  0  0  0999 V2000
    1.7643  -24.1682   16.2915 O   0  0  0  0  0  0  0  0  0  0  0  0
    1.5620  -23.4780   17.2531 C   0  0  0  0  0  0  0  0  0  0  0  0
    2.2181  -22.0461   17.3411 C   0  0  0  0  0  0  0  0  0  0  0  0
    3.0601  -21.5782   16.1004 C   0  0  0  0  0  0  0  0  0  0  0  0
    3.5644  -20.1821   16.0692 N   0  0  0  0  0  0  0  0  0  0  0  0
    3.0148  -19.1019   16.6923 C   0  0  0  0  0  0  0  0  0  0  0  0
    3.7281  -17.9931   16.3181 C   0  0  0  0  0  0  0  0  0  0  0  0
    3.5078  -16.4456   16.9382 Cl  0  0  0  0  0  0  0  0  0  0  0  0
    4.7071  -18.4795   15.4418 C   0  0  0  0  0  0  0  0  0  0  0  0
    4.6629  -19.8213   15.3362 N   0  0  0  0  0  0  0  0  0  0  0  0
    0.7180  -23.7100   18.4439 N   0  0  0  0  0  0  0  0  0  0  0  0
   -0.0326  -24.8568   18.8515 C   0  0  0  0  0  0  0  0  0  0  0  0
   -0.7292  -24.7990   20.0695 C   0  0  0  0  0  0  0  0  0  0  0  0
   -1.4766  -25.8928   20.5652 C   0  0  0  0  0  0  0  0  0  0  0  0
   -1.5735  -27.0867   19.8753 C   0  0  0  0  0  0  0  0  0  0  0  0
   -2.2812  -28.1023   20.4038 N   0  0  0  0  0  0  0  0  0  0  0  0
   -2.3667  -29.2311   19.6722 C   0  0  0  0  0  0  0  0  0  0  0  0
   -1.7679  -29.4150   18.4422 C   0  0  0  0  0  0  0  0  0  0  0  0
   -1.0220  -28.3633   17.9195 C   0  0  0  0  0  0  0  0  0  0  0  0
   -0.9063  -27.1620   18.6328 C   0  0  0  0  0  0  0  0  0  0  0  0
   -0.1460  -26.0533   18.1376 C   0  0  0  0  0  0  0  0  0  0  0  0
    1.4052  -21.3372   17.5225 H   0  0  0  0  0  0  0  0  0  0  0  0
    2.8624  -22.0442   18.2251 H   0  0  0  0  0  0  0  0  0  0  0  0
    2.4669  -21.6868   15.1851 H   0  0  0  0  0  0  0  0  0  0  0  0
    3.9443  -22.2196   16.0065 H   0  0  0  0  0  0  0  0  0  0  0  0
    2.1920  -19.2269   17.3709 H   0  0  0  0  0  0  0  0  0  0  0  0
    5.4763  -17.9397   14.9073 H   0  0  0  0  0  0  0  0  0  0  0  0
    0.7187  -22.8765   19.0193 H   0  0  0  0  0  0  0  0  0  0  0  0
   -0.6922  -23.8950   20.6739 H   0  0  0  0  0  0  0  0  0  0  0  0
   -1.9863  -25.7969   21.5208 H   0  0  0  0  0  0  0  0  0  0  0  0
   -2.9618  -30.0083   20.1203 H   0  0  0  0  0  0  0  0  0  0  0  0
   -1.8888  -30.3473   17.9021 H   0  0  0  0  0  0  0  0  0  0  0  0
   -0.5402  -28.4806   16.9521 H   0  0  0  0  0  0  0  0  0  0  0  0
    0.3609  -26.1476   17.1783 H   0  0  0  0  0  0  0  0  0  0  0  0
  1  2  2  0
  2  3  1  0
  3  4  1  0
  4  5  1  0
  5  6  1  0
  6  7  2  0
  7  8  1  0
  7  9  1  0
  9 10  2  0
  2 11  1  0
 11 12  1  0
 12 13  2  0
 13 14  1  0
 14 15  2  0
 15 16  1  0
 16 17  2  0
 17 18  1  0
 18 19  2  0
 19 20  1  0
 20 21  2  0
 10  5  1  0
 21 12  1  0
 20 15  1  0
  3 22  1  0
  3 23  1  0
  4 24  1  0
  4 25  1  0
  6 26  1  0
  9 27  1  0
 11 28  1  0
 13 29  1  0
 14 30  1  0
 17 31  1  0
 18 32  1  0
 19 33  1  0
 21 34  1  0
M  END
>  <Energy>  (928) 
21.813683805482611

>  <compound_id>  (928) 
46859

>  <target_id>  (928) 
1

>  <reference_id>  (928) 
68

>  <inspiration_ids>  (928) 
[122, 68]

>  <energy_score>  (928) 
-24.126151408082933

>  <distance_score>  (928) 
15.605914405418158

>  <path>  (928) 
/opt/xchem-fragalysis-2/maxwin/BulkDock/SCRATCH/511023/C46859-P68/C46859-P68.minimised.mol

>  <scratch_subdir>  (928) 
/opt/xchem-fragalysis-2/maxwin/BulkDock/SCRATCH/511023/C46859-P68

>  <fragmenstein_runtime>  (928) 
15.958421468734741

>  <fragmenstein_outcome>  (928) 
too moved

>  <fragmenstein_mode>  (928) 
expansion

>  <fragmenstein_error>  (928) 


$$$$
C46861-P122
     RDKit          3D

 35 37  0  0  0  0  0  0  0  0999 V2000
    0.8027  -25.9556   15.8018 O   0  0  0  0  0  0  0  0  0  0  0  0
    0.8391  -25.1959   16.7372 C   0  0  0  0  0  0  0  0  0  0  0  0
    1.5424  -23.8955   16.9015 N   0  0  0  0  0  0  0  0  0  0  0  0
    2.4495  -23.2131   16.0448 C   0  0  0  0  0  0  0  0  0  0  0  0
    3.0071  -23.7687   14.9599 N   0  0  0  0  0  0  0  0  0  0  0  0
    3.8032  -22.8292   14.4121 N   0  0  0  0  0  0  0  0  0  0  0  0
    3.8027  -21.6464   15.0651 C   0  0  0  0  0  0  0  0  0  0  0  0
    2.9190  -21.8372   16.0983 C   0  0  0  0  0  0  0  0  0  0  0  0
    2.4531  -20.5851   17.1012 Cl  0  0  0  0  0  0  0  0  0  0  0  0
   -0.1031  -25.5930   18.0380 C   0  0  0  0  0  0  0  0  0  0  0  0
    0.6892  -25.5927   19.2207 O   0  0  0  0  0  0  0  0  0  0  0  0
   -0.8994  -27.0028   17.8757 C   0  0  0  0  0  0  0  0  0  0  0  0
   -1.8007  -27.7206   18.9173 C   0  0  0  0  0  0  0  0  0  0  0  0
   -1.8300  -27.4375   20.2791 C   0  0  0  0  0  0  0  0  0  0  0  0
   -2.5674  -28.2487   21.1835 C   0  0  0  0  0  0  0  0  0  0  0  0
   -3.2992  -29.3687   20.7942 C   0  0  0  0  0  0  0  0  0  0  0  0
   -3.9429  -30.1244   21.7125 N   0  0  0  0  0  0  0  0  0  0  0  0
   -4.6415  -31.2012   21.2832 C   0  0  0  0  0  0  0  0  0  0  0  0
   -4.7282  -31.5677   19.9546 C   0  0  0  0  0  0  0  0  0  0  0  0
   -4.0531  -30.7870   19.0155 C   0  0  0  0  0  0  0  0  0  0  0  0
   -3.3127  -29.6626   19.4227 C   0  0  0  0  0  0  0  0  0  0  0  0
   -2.5736  -28.8434   18.5124 C   0  0  0  0  0  0  0  0  0  0  0  0
    1.4185  -23.5668   17.8558 H   0  0  0  0  0  0  0  0  0  0  0  0
    4.2976  -23.0768   13.5610 H   0  0  0  0  0  0  0  0  0  0  0  0
    4.3545  -20.7866   14.7176 H   0  0  0  0  0  0  0  0  0  0  0  0
   -0.8490  -24.7963   18.1379 H   0  0  0  0  0  0  0  0  0  0  0  0
    1.3212  -26.3308   19.1340 H   0  0  0  0  0  0  0  0  0  0  0  0
   -0.1203  -27.7423   17.6407 H   0  0  0  0  0  0  0  0  0  0  0  0
   -1.5052  -26.8922   16.9658 H   0  0  0  0  0  0  0  0  0  0  0  0
   -1.2566  -26.6054   20.6823 H   0  0  0  0  0  0  0  0  0  0  0  0
   -2.5447  -27.9999   22.2433 H   0  0  0  0  0  0  0  0  0  0  0  0
   -5.1458  -31.7684   22.0617 H   0  0  0  0  0  0  0  0  0  0  0  0
   -5.3129  -32.4297   19.6575 H   0  0  0  0  0  0  0  0  0  0  0  0
   -4.1067  -31.0584   17.9648 H   0  0  0  0  0  0  0  0  0  0  0  0
   -2.5744  -29.1170   17.4566 H   0  0  0  0  0  0  0  0  0  0  0  0
  1  2  2  0
  2  3  1  0
  3  4  1  0
  4  5  2  0
  5  6  1  0
  6  7  1  0
  7  8  2  0
  8  9  1  0
  2 10  1  0
 10 11  1  0
 10 12  1  0
 12 13  1  0
 13 14  2  0
 14 15  1  0
 15 16  2  0
 16 17  1  0
 17 18  2  0
 18 19  1  0
 19 20  2  0
 20 21  1  0
 21 22  2  0
  8  4  1  0
 22 13  1  0
 21 16  1  0
  3 23  1  0
  6 24  1  0
  7 25  1  0
 10 26  1  0
 11 27  1  0
 12 28  1  0
 12 29  1  0
 14 30  1  0
 15 31  1  0
 18 32  1  0
 19 33  1  0
 20 34  1  0
 22 35  1  0
M  END
>  <Energy>  (929) 
75.574523017848776

>  <compound_id>  (929) 
46861

>  <target_id>  (929) 
1

>  <reference_id>  (929) 
122

>  <inspiration_ids>  (929) 
[122, 68]

>  <energy_score>  (929) 
-22.8682442769246

>  <distance_score>  (929) 
15.802611483782567

>  <path>  (929) 
/opt/xchem-fragalysis-2/maxwin/BulkDock/SCRATCH/511023/C46861-P122/C46861-P122.minimised.mol

>  <scratch_subdir>  (929) 
/opt/xchem-fragalysis-2/maxwin/BulkDock/SCRATCH/511023/C46861-P122

>  <fragmenstein_runtime>  (929) 
10.937560558319092

>  <fragmenstein_outcome>  (929) 
too moved

>  <fragmenstein_mode>  (929) 
expansion

>  <fragmenstein_error>  (929) 


$$$$
C46861-P68
     RDKit          3D

 35 37  0  0  0  0  0  0  0  0999 V2000
   -0.6219  -23.6358   18.8198 O   0  0  0  0  0  0  0  0  0  0  0  0
    0.2323  -24.3014   18.3000 C   0  0  0  0  0  0  0  0  0  0  0  0
    1.5102  -23.9118   17.6837 N   0  0  0  0  0  0  0  0  0  0  0  0
    2.0658  -22.6441   17.4381 C   0  0  0  0  0  0  0  0  0  0  0  0
    1.4688  -21.4676   17.6684 N   0  0  0  0  0  0  0  0  0  0  0  0
    2.2289  -20.5449   17.0292 N   0  0  0  0  0  0  0  0  0  0  0  0
    3.4115  -21.0342   16.5704 C   0  0  0  0  0  0  0  0  0  0  0  0
    3.3420  -22.3861   16.8185 C   0  0  0  0  0  0  0  0  0  0  0  0
    4.4902  -23.5609   16.3832 Cl  0  0  0  0  0  0  0  0  0  0  0  0
   -0.0184  -25.8720   18.1261 C   0  0  0  0  0  0  0  0  0  0  0  0
    1.1596  -26.5538   18.5719 O   0  0  0  0  0  0  0  0  0  0  0  0
   -1.3255  -26.4589   18.8354 C   0  0  0  0  0  0  0  0  0  0  0  0
   -1.8760  -27.7971   18.3166 C   0  0  0  0  0  0  0  0  0  0  0  0
   -1.0386  -28.8774   18.0290 C   0  0  0  0  0  0  0  0  0  0  0  0
   -1.5364  -30.0508   17.4334 C   0  0  0  0  0  0  0  0  0  0  0  0
   -2.8725  -30.2066   17.1064 C   0  0  0  0  0  0  0  0  0  0  0  0
   -3.2740  -31.3171   16.4441 N   0  0  0  0  0  0  0  0  0  0  0  0
   -4.5965  -31.4627   16.2190 C   0  0  0  0  0  0  0  0  0  0  0  0
   -5.5428  -30.5283   16.5877 C   0  0  0  0  0  0  0  0  0  0  0  0
   -5.1085  -29.3621   17.2165 C   0  0  0  0  0  0  0  0  0  0  0  0
   -3.7510  -29.1757   17.4974 C   0  0  0  0  0  0  0  0  0  0  0  0
   -3.2546  -27.9944   18.1115 C   0  0  0  0  0  0  0  0  0  0  0  0
    2.0198  -24.7477   17.4180 H   0  0  0  0  0  0  0  0  0  0  0  0
    1.8272  -19.6261   16.8636 H   0  0  0  0  0  0  0  0  0  0  0  0
    4.1316  -20.4106   16.0649 H   0  0  0  0  0  0  0  0  0  0  0  0
   -0.1081  -26.0418   17.0459 H   0  0  0  0  0  0  0  0  0  0  0  0
    1.1811  -26.4715   19.5438 H   0  0  0  0  0  0  0  0  0  0  0  0
   -1.1232  -26.5823   19.9064 H   0  0  0  0  0  0  0  0  0  0  0  0
   -2.1213  -25.7106   18.7370 H   0  0  0  0  0  0  0  0  0  0  0  0
    0.0314  -28.8157   18.2151 H   0  0  0  0  0  0  0  0  0  0  0  0
   -0.8474  -30.8546   17.1853 H   0  0  0  0  0  0  0  0  0  0  0  0
   -4.8809  -32.3805   15.7159 H   0  0  0  0  0  0  0  0  0  0  0  0
   -6.5929  -30.6900   16.3816 H   0  0  0  0  0  0  0  0  0  0  0  0
   -5.8352  -28.6061   17.4962 H   0  0  0  0  0  0  0  0  0  0  0  0
   -3.9551  -27.2032   18.3717 H   0  0  0  0  0  0  0  0  0  0  0  0
  1  2  2  0
  2  3  1  0
  3  4  1  0
  4  5  2  0
  5  6  1  0
  6  7  1  0
  7  8  2  0
  8  9  1  0
  2 10  1  0
 10 11  1  0
 10 12  1  0
 12 13  1  0
 13 14  2  0
 14 15  1  0
 15 16  2  0
 16 17  1  0
 17 18  2  0
 18 19  1  0
 19 20  2  0
 20 21  1  0
 21 22  2  0
  8  4  1  0
 22 13  1  0
 21 16  1  0
  3 23  1  0
  6 24  1  0
  7 25  1  0
 10 26  1  0
 11 27  1  0
 12 28  1  0
 12 29  1  0
 14 30  1  0
 15 31  1  0
 18 32  1  0
 19 33  1  0
 20 34  1  0
 22 35  1  0
M  END
>  <Energy>  (930) 
61.538796063058626

>  <compound_id>  (930) 
46861

>  <target_id>  (930) 
1

>  <reference_id>  (930) 
68

>  <inspiration_ids>  (930) 
[122, 68]

>  <energy_score>  (930) 
-36.903971231713854

>  <distance_score>  (930) 
15.84528925305575

>  <path>  (930) 
/opt/xchem-fragalysis-2/maxwin/BulkDock/SCRATCH/511023/C46861-P68/C46861-P68.minimised.mol

>  <scratch_subdir>  (930) 
/opt/xchem-fragalysis-2/maxwin/BulkDock/SCRATCH/511023/C46861-P68

>  <fragmenstein_runtime>  (930) 
22.04182505607605

>  <fragmenstein_outcome>  (930) 
too moved

>  <fragmenstein_mode>  (930) 
expansion

>  <fragmenstein_error>  (930) 


$$$$
C46862-P122
     RDKit          3D

 33 35  0  0  0  0  0  0  0  0999 V2000
    3.3016  -23.8232   21.9975 O   0  0  0  0  0  0  0  0  0  0  0  0
    2.4438  -23.1617   22.5750 C   0  0  0  0  0  0  0  0  0  0  0  0
    2.6062  -21.6489   22.8907 C   0  0  0  0  0  0  0  0  0  0  0  0
    3.9338  -20.9743   22.6270 N   0  0  0  0  0  0  0  0  0  0  0  0
    4.8695  -21.2273   21.6527 C   0  0  0  0  0  0  0  0  0  0  0  0
    5.9307  -20.3749   21.8515 C   0  0  0  0  0  0  0  0  0  0  0  0
    7.4088  -20.3691   21.0294 Cl  0  0  0  0  0  0  0  0  0  0  0  0
    5.5554  -19.5996   22.9515 C   0  0  0  0  0  0  0  0  0  0  0  0
    4.3445  -19.9326   23.4259 N   0  0  0  0  0  0  0  0  0  0  0  0
    1.2002  -23.7293   22.9327 O   0  0  0  0  0  0  0  0  0  0  0  0
    1.0463  -25.1657   22.5670 C   0  0  0  0  0  0  0  0  0  0  0  0
   -0.2386  -26.0267   22.8711 C   0  0  0  0  0  0  0  0  0  0  0  0
   -1.4878  -25.5300   23.2337 C   0  0  0  0  0  0  0  0  0  0  0  0
   -2.6005  -26.4032   23.4295 C   0  0  0  0  0  0  0  0  0  0  0  0
   -2.5428  -27.7912   23.2676 C   0  0  0  0  0  0  0  0  0  0  0  0
   -3.6354  -28.5707   23.4628 N   0  0  0  0  0  0  0  0  0  0  0  0
   -3.5277  -29.9066   23.2634 C   0  0  0  0  0  0  0  0  0  0  0  0
   -2.3533  -30.5193   22.8789 C   0  0  0  0  0  0  0  0  0  0  0  0
   -1.2281  -29.7120   22.6941 C   0  0  0  0  0  0  0  0  0  0  0  0
   -1.3012  -28.3178   22.8857 C   0  0  0  0  0  0  0  0  0  0  0  0
   -0.1820  -27.4403   22.6967 C   0  0  0  0  0  0  0  0  0  0  0  0
    2.4140  -21.4985   23.9577 H   0  0  0  0  0  0  0  0  0  0  0  0
    1.8911  -21.0903   22.2809 H   0  0  0  0  0  0  0  0  0  0  0  0
    4.7493  -22.0174   20.9311 H   0  0  0  0  0  0  0  0  0  0  0  0
    6.1281  -18.8383   23.4605 H   0  0  0  0  0  0  0  0  0  0  0  0
    1.8771  -25.6888   23.0574 H   0  0  0  0  0  0  0  0  0  0  0  0
    1.1824  -25.2199   21.4794 H   0  0  0  0  0  0  0  0  0  0  0  0
   -1.6299  -24.4602   23.3724 H   0  0  0  0  0  0  0  0  0  0  0  0
   -3.5563  -25.9675   23.7181 H   0  0  0  0  0  0  0  0  0  0  0  0
   -4.4383  -30.4787   23.4255 H   0  0  0  0  0  0  0  0  0  0  0  0
   -2.3130  -31.5926   22.7309 H   0  0  0  0  0  0  0  0  0  0  0  0
   -0.2916  -30.1747   22.3930 H   0  0  0  0  0  0  0  0  0  0  0  0
    0.7671  -27.8827   22.3894 H   0  0  0  0  0  0  0  0  0  0  0  0
  1  2  2  0
  2  3  1  0
  3  4  1  0
  4  5  1  0
  5  6  2  0
  6  7  1  0
  6  8  1  0
  8  9  2  0
  2 10  1  0
 10 11  1  0
 11 12  1  0
 12 13  2  0
 13 14  1  0
 14 15  2  0
 15 16  1  0
 16 17  2  0
 17 18  1  0
 18 19  2  0
 19 20  1  0
 20 21  2  0
  9  4  1  0
 21 12  1  0
 20 15  1  0
  3 22  1  0
  3 23  1  0
  5 24  1  0
  8 25  1  0
 11 26  1  0
 11 27  1  0
 13 28  1  0
 14 29  1  0
 17 30  1  0
 18 31  1  0
 19 32  1  0
 21 33  1  0
M  END
>  <Energy>  (931) 
57.942815491435042

>  <compound_id>  (931) 
46862

>  <target_id>  (931) 
1

>  <reference_id>  (931) 
122

>  <inspiration_ids>  (931) 
[122, 68]

>  <energy_score>  (931) 
-7.1092303454076955

>  <distance_score>  (931) 
15.64162614161896

>  <path>  (931) 
/opt/xchem-fragalysis-2/maxwin/BulkDock/SCRATCH/511023/C46862-P122/C46862-P122.minimised.mol

>  <scratch_subdir>  (931) 
/opt/xchem-fragalysis-2/maxwin/BulkDock/SCRATCH/511023/C46862-P122

>  <fragmenstein_runtime>  (931) 
13.316617965698242

>  <fragmenstein_outcome>  (931) 
too moved

>  <fragmenstein_mode>  (931) 
expansion

>  <fragmenstein_error>  (931) 


$$$$
C46862-P68
     RDKit          3D

 33 35  0  0  0  0  0  0  0  0999 V2000
    3.5644  -22.8625   17.5806 O   0  0  0  0  0  0  0  0  0  0  0  0
    2.4649  -22.3415   17.4312 C   0  0  0  0  0  0  0  0  0  0  0  0
    2.2087  -20.9731   16.7788 C   0  0  0  0  0  0  0  0  0  0  0  0
    3.2932  -19.9756   16.5114 N   0  0  0  0  0  0  0  0  0  0  0  0
    4.4240  -20.1334   15.7401 C   0  0  0  0  0  0  0  0  0  0  0  0
    4.9127  -18.8745   15.4667 C   0  0  0  0  0  0  0  0  0  0  0  0
    6.2887  -18.4862   14.5726 Cl  0  0  0  0  0  0  0  0  0  0  0  0
    4.0144  -17.9949   16.0834 C   0  0  0  0  0  0  0  0  0  0  0  0
    3.0614  -18.6479   16.7641 N   0  0  0  0  0  0  0  0  0  0  0  0
    1.2563  -23.0112   17.7650 O   0  0  0  0  0  0  0  0  0  0  0  0
    1.4074  -24.3382   18.3988 C   0  0  0  0  0  0  0  0  0  0  0  0
    0.1807  -25.2834   18.6889 C   0  0  0  0  0  0  0  0  0  0  0  0
   -1.1416  -25.0493   18.3133 C   0  0  0  0  0  0  0  0  0  0  0  0
   -2.1591  -26.0191   18.5493 C   0  0  0  0  0  0  0  0  0  0  0  0
   -1.9162  -27.2610   19.1382 C   0  0  0  0  0  0  0  0  0  0  0  0
   -2.9011  -28.1783   19.2635 N   0  0  0  0  0  0  0  0  0  0  0  0
   -2.5760  -29.3930   19.7576 C   0  0  0  0  0  0  0  0  0  0  0  0
   -1.3182  -29.7306   20.2092 C   0  0  0  0  0  0  0  0  0  0  0  0
   -0.3173  -28.7687   20.1092 C   0  0  0  0  0  0  0  0  0  0  0  0
   -0.5961  -27.5126   19.5452 C   0  0  0  0  0  0  0  0  0  0  0  0
    0.4161  -26.5282   19.3342 C   0  0  0  0  0  0  0  0  0  0  0  0
    1.8253  -21.1955   15.7803 H   0  0  0  0  0  0  0  0  0  0  0  0
    1.4822  -20.4424   17.3997 H   0  0  0  0  0  0  0  0  0  0  0  0
    4.7527  -21.1160   15.4363 H   0  0  0  0  0  0  0  0  0  0  0  0
    4.0179  -16.9159   16.1048 H   0  0  0  0  0  0  0  0  0  0  0  0
    2.0821  -24.9194   17.7578 H   0  0  0  0  0  0  0  0  0  0  0  0
    1.8955  -24.1601   19.3648 H   0  0  0  0  0  0  0  0  0  0  0  0
   -1.4066  -24.1234   17.8091 H   0  0  0  0  0  0  0  0  0  0  0  0
   -3.1739  -25.7998   18.2209 H   0  0  0  0  0  0  0  0  0  0  0  0
   -3.3870  -30.1088   19.7665 H   0  0  0  0  0  0  0  0  0  0  0  0
   -1.1143  -30.7196   20.6036 H   0  0  0  0  0  0  0  0  0  0  0  0
    0.6889  -29.0159   20.4376 H   0  0  0  0  0  0  0  0  0  0  0  0
    1.4362  -26.7628   19.6424 H   0  0  0  0  0  0  0  0  0  0  0  0
  1  2  2  0
  2  3  1  0
  3  4  1  0
  4  5  1  0
  5  6  2  0
  6  7  1  0
  6  8  1  0
  8  9  2  0
  2 10  1  0
 10 11  1  0
 11 12  1  0
 12 13  2  0
 13 14  1  0
 14 15  2  0
 15 16  1  0
 16 17  2  0
 17 18  1  0
 18 19  2  0
 19 20  1  0
 20 21  2  0
  9  4  1  0
 21 12  1  0
 20 15  1  0
  3 22  1  0
  3 23  1  0
  5 24  1  0
  8 25  1  0
 11 26  1  0
 11 27  1  0
 13 28  1  0
 14 29  1  0
 17 30  1  0
 18 31  1  0
 19 32  1  0
 21 33  1  0
M  END
>  <Energy>  (932) 
57.246552261548246

>  <compound_id>  (932) 
46862

>  <target_id>  (932) 
1

>  <reference_id>  (932) 
68

>  <inspiration_ids>  (932) 
[122, 68]

>  <energy_score>  (932) 
-7.805493575291052

>  <distance_score>  (932) 
15.637427246116424

>  <path>  (932) 
/opt/xchem-fragalysis-2/maxwin/BulkDock/SCRATCH/511023/C46862-P68/C46862-P68.minimised.mol

>  <scratch_subdir>  (932) 
/opt/xchem-fragalysis-2/maxwin/BulkDock/SCRATCH/511023/C46862-P68

>  <fragmenstein_runtime>  (932) 
14.167744874954224

>  <fragmenstein_outcome>  (932) 
too moved

>  <fragmenstein_mode>  (932) 
expansion

>  <fragmenstein_error>  (932) 


$$$$
C46864-P122
     RDKit          3D

 34 36  0  0  0  0  0  0  0  0999 V2000
    0.2952  -25.3622   19.4021 O   0  0  0  0  0  0  0  0  0  0  0  0
   -0.2757  -25.5256   18.3628 C   0  0  0  0  0  0  0  0  0  0  0  0
   -1.3034  -26.4878   17.9879 N   0  0  0  0  0  0  0  0  0  0  0  0
   -1.8975  -27.6362   18.7474 C   0  0  0  0  0  0  0  0  0  0  0  0
   -3.4589  -27.8061   18.8154 C   0  0  0  0  0  0  0  0  0  0  0  0
   -4.0283  -29.0357   19.5520 C   0  0  0  0  0  0  0  0  0  0  0  0
   -4.9443  -28.8898   20.6036 C   0  0  0  0  0  0  0  0  0  0  0  0
   -5.5487  -30.0085   21.2188 C   0  0  0  0  0  0  0  0  0  0  0  0
   -5.2869  -31.3116   20.8185 C   0  0  0  0  0  0  0  0  0  0  0  0
   -5.9027  -32.3504   21.4209 N   0  0  0  0  0  0  0  0  0  0  0  0
   -5.6005  -33.5991   21.0118 C   0  0  0  0  0  0  0  0  0  0  0  0
   -4.7114  -33.8738   19.9929 C   0  0  0  0  0  0  0  0  0  0  0  0
   -4.0893  -32.7981   19.3628 C   0  0  0  0  0  0  0  0  0  0  0  0
   -4.3649  -31.4822   19.7692 C   0  0  0  0  0  0  0  0  0  0  0  0
   -3.7527  -30.3533   19.1501 C   0  0  0  0  0  0  0  0  0  0  0  0
    0.2105  -24.6240   17.2694 C   0  0  0  0  0  0  0  0  0  0  0  0
    1.3082  -23.7876   17.4726 N   0  0  0  0  0  0  0  0  0  0  0  0
    1.6335  -22.9653   16.4486 N   0  0  0  0  0  0  0  0  0  0  0  0
    0.8044  -23.3541   15.4901 C   0  0  0  0  0  0  0  0  0  0  0  0
   -0.1071  -24.3432   15.9519 C   0  0  0  0  0  0  0  0  0  0  0  0
   -1.3413  -25.0346   15.0110 Cl  0  0  0  0  0  0  0  0  0  0  0  0
   -1.6195  -26.2846   17.0459 H   0  0  0  0  0  0  0  0  0  0  0  0
   -1.4643  -28.5316   18.2880 H   0  0  0  0  0  0  0  0  0  0  0  0
   -1.4997  -27.5780   19.7671 H   0  0  0  0  0  0  0  0  0  0  0  0
   -3.8519  -27.8264   17.7908 H   0  0  0  0  0  0  0  0  0  0  0  0
   -3.8684  -26.8961   19.2722 H   0  0  0  0  0  0  0  0  0  0  0  0
   -5.2279  -27.8994   20.9533 H   0  0  0  0  0  0  0  0  0  0  0  0
   -6.2718  -29.8547   22.0178 H   0  0  0  0  0  0  0  0  0  0  0  0
   -6.1050  -34.3918   21.5541 H   0  0  0  0  0  0  0  0  0  0  0  0
   -4.4994  -34.8951   19.7020 H   0  0  0  0  0  0  0  0  0  0  0  0
   -3.3841  -32.9895   18.5590 H   0  0  0  0  0  0  0  0  0  0  0  0
   -3.0658  -30.5210   18.3225 H   0  0  0  0  0  0  0  0  0  0  0  0
    1.8710  -23.7295   18.3224 H   0  0  0  0  0  0  0  0  0  0  0  0
    0.8728  -22.8953   14.5111 H   0  0  0  0  0  0  0  0  0  0  0  0
  1  2  2  0
  2  3  1  0
  3  4  1  0
  4  5  1  0
  5  6  1  0
  6  7  2  0
  7  8  1  0
  8  9  2  0
  9 10  1  0
 10 11  2  0
 11 12  1  0
 12 13  2  0
 13 14  1  0
 14 15  2  0
  2 16  1  0
 16 17  1  0
 17 18  1  0
 18 19  2  0
 19 20  1  0
 20 21  1  0
 15  6  1  0
 20 16  2  0
 14  9  1  0
  3 22  1  0
  4 23  1  0
  4 24  1  0
  5 25  1  0
  5 26  1  0
  7 27  1  0
  8 28  1  0
 11 29  1  0
 12 30  1  0
 13 31  1  0
 15 32  1  0
 17 33  1  0
 19 34  1  0
M  END
>  <Energy>  (933) 
19.323727813622039

>  <compound_id>  (933) 
46864

>  <target_id>  (933) 
1

>  <reference_id>  (933) 
122

>  <inspiration_ids>  (933) 
[122, 68]

>  <energy_score>  (933) 
-9.51795365319623

>  <distance_score>  (933) 
15.793469756105779

>  <path>  (933) 
/opt/xchem-fragalysis-2/maxwin/BulkDock/SCRATCH/511023/C46864-P122/C46864-P122.minimised.mol

>  <scratch_subdir>  (933) 
/opt/xchem-fragalysis-2/maxwin/BulkDock/SCRATCH/511023/C46864-P122

>  <fragmenstein_runtime>  (933) 
12.142753839492798

>  <fragmenstein_outcome>  (933) 
too moved

>  <fragmenstein_mode>  (933) 
expansion

>  <fragmenstein_error>  (933) 


$$$$
C46864-P68
     RDKit          3D

 34 36  0  0  0  0  0  0  0  0999 V2000
   -3.6633  -29.3747   19.4461 O   0  0  0  0  0  0  0  0  0  0  0  0
   -4.5953  -28.8197   18.9401 C   0  0  0  0  0  0  0  0  0  0  0  0
   -6.0010  -29.2505   18.7899 N   0  0  0  0  0  0  0  0  0  0  0  0
   -6.7089  -30.6174   19.1497 C   0  0  0  0  0  0  0  0  0  0  0  0
   -8.3156  -30.9168   20.0649 C   0  0  0  0  0  0  0  0  0  0  0  0
   -9.7385  -31.8462   20.9459 C   0  0  0  0  0  0  0  0  0  0  0  0
  -11.0422  -31.3503   20.8018 C   0  0  0  0  0  0  0  0  0  0  0  0
  -12.1395  -32.0220   21.3855 C   0  0  0  0  0  0  0  0  0  0  0  0
  -12.0123  -33.1919   22.1330 C   0  0  0  0  0  0  0  0  0  0  0  0
  -13.0786  -33.7909   22.6974 N   0  0  0  0  0  0  0  0  0  0  0  0
  -12.8807  -34.9498   23.3728 C   0  0  0  0  0  0  0  0  0  0  0  0
  -11.6526  -35.5568   23.5304 C   0  0  0  0  0  0  0  0  0  0  0  0
  -10.5600  -34.9294   22.9613 C   0  0  0  0  0  0  0  0  0  0  0  0
  -10.7345  -33.7305   22.2527 C   0  0  0  0  0  0  0  0  0  0  0  0
   -9.6494  -33.0781   21.6494 C   0  0  0  0  0  0  0  0  0  0  0  0
   -4.2294  -27.3996   18.4889 C   0  0  0  0  0  0  0  0  0  0  0  0
   -4.8708  -26.1988   18.7535 N   0  0  0  0  0  0  0  0  0  0  0  0
   -4.1729  -25.0616   18.4611 N   0  0  0  0  0  0  0  0  0  0  0  0
   -3.0220  -25.5227   17.9727 C   0  0  0  0  0  0  0  0  0  0  0  0
   -3.0037  -26.9379   17.9654 C   0  0  0  0  0  0  0  0  0  0  0  0
   -1.6815  -27.8638   17.4269 Cl  0  0  0  0  0  0  0  0  0  0  0  0
   -6.5009  -28.5662   18.2333 H   0  0  0  0  0  0  0  0  0  0  0  0
   -5.8994  -31.0265   19.7275 H   0  0  0  0  0  0  0  0  0  0  0  0
   -6.7776  -31.1025   18.1709 H   0  0  0  0  0  0  0  0  0  0  0  0
   -8.2721  -30.0403   20.6245 H   0  0  0  0  0  0  0  0  0  0  0  0
   -8.9804  -30.5955   19.3560 H   0  0  0  0  0  0  0  0  0  0  0  0
  -11.2466  -30.4872   20.1808 H   0  0  0  0  0  0  0  0  0  0  0  0
  -13.1387  -31.6205   21.2325 H   0  0  0  0  0  0  0  0  0  0  0  0
  -13.7789  -35.3901   23.7973 H   0  0  0  0  0  0  0  0  0  0  0  0
  -11.5499  -36.4847   24.0801 H   0  0  0  0  0  0  0  0  0  0  0  0
   -9.5750  -35.3767   23.0712 H   0  0  0  0  0  0  0  0  0  0  0  0
   -8.7257  -33.6209   21.7548 H   0  0  0  0  0  0  0  0  0  0  0  0
   -5.7735  -26.0865   19.1995 H   0  0  0  0  0  0  0  0  0  0  0  0
   -2.2547  -24.8313   17.6506 H   0  0  0  0  0  0  0  0  0  0  0  0
  1  2  2  0
  2  3  1  0
  3  4  1  0
  4  5  1  0
  5  6  1  0
  6  7  2  0
  7  8  1  0
  8  9  2  0
  9 10  1  0
 10 11  2  0
 11 12  1  0
 12 13  2  0
 13 14  1  0
 14 15  2  0
  2 16  1  0
 16 17  1  0
 17 18  1  0
 18 19  2  0
 19 20  1  0
 20 21  1  0
 15  6  1  0
 20 16  2  0
 14  9  1  0
  3 22  1  0
  4 23  1  0
  4 24  1  0
  5 25  1  0
  5 26  1  0
  7 27  1  0
  8 28  1  0
 11 29  1  0
 12 30  1  0
 13 31  1  0
 15 32  1  0
 17 33  1  0
 19 34  1  0
M  END
>  <Energy>  (934) 
164.45288641406782

>  <compound_id>  (934) 
46864

>  <target_id>  (934) 
1

>  <reference_id>  (934) 
68

>  <inspiration_ids>  (934) 
[122, 68]

>  <energy_score>  (934) 
135.61120494725566

>  <distance_score>  (934) 
17.18989277145504

>  <path>  (934) 
/opt/xchem-fragalysis-2/maxwin/BulkDock/SCRATCH/511023/C46864-P68/C46864-P68.minimised.mol

>  <scratch_subdir>  (934) 
/opt/xchem-fragalysis-2/maxwin/BulkDock/SCRATCH/511023/C46864-P68

>  <fragmenstein_runtime>  (934) 
15.576683521270752

>  <fragmenstein_outcome>  (934) 
too moved

>  <fragmenstein_mode>  (934) 
expansion

>  <fragmenstein_error>  (934) 


$$$$
C46865-P122
     RDKit          3D

 37 41  0  0  0  0  0  0  0  0999 V2000
   -1.3746  -30.7365   18.2677 C   0  0  0  0  0  0  0  0  0  0  0  0
   -0.9689  -31.0505   19.5493 C   0  0  0  0  0  0  0  0  0  0  0  0
    0.1385  -30.5266   20.1224 N   0  0  0  0  0  0  0  0  0  0  0  0
    0.8803  -29.6451   19.4059 C   0  0  0  0  0  0  0  0  0  0  0  0
    2.0206  -29.0610   19.9537 C   0  0  0  0  0  0  0  0  0  0  0  0
    2.8276  -28.1040   19.2664 C   0  0  0  0  0  0  0  0  0  0  0  0
    2.5309  -27.6799   17.9678 C   0  0  0  0  0  0  0  0  0  0  0  0
    3.2582  -26.4995   17.3047 C   0  0  0  0  0  0  0  0  0  0  0  0
    4.5838  -26.0376   17.5663 N   0  0  0  0  0  0  0  0  0  0  0  0
    4.7548  -24.9147   16.8280 C   0  0  0  0  0  0  0  0  0  0  0  0
    5.9506  -24.0031   16.6788 C   0  0  0  0  0  0  0  0  0  0  0  0
    7.0910  -23.7902   17.4506 C   0  0  0  0  0  0  0  0  0  0  0  0
    7.7175  -22.6167   16.9562 C   0  0  0  0  0  0  0  0  0  0  0  0
    7.0998  -22.1482   15.8756 N   0  0  0  0  0  0  0  0  0  0  0  0
    6.1332  -23.0730   15.6554 N   0  0  0  0  0  0  0  0  0  0  0  0
    3.4945  -24.6278   16.3189 N   0  0  0  0  0  0  0  0  0  0  0  0
    3.1252  -23.3295   15.6334 C   0  0  0  0  0  0  0  0  0  0  0  0
    2.2068  -22.2816   16.2392 C   0  0  0  0  0  0  0  0  0  0  0  0
    3.6407  -21.9722   16.1220 C   0  0  0  0  0  0  0  0  0  0  0  0
    2.6458  -25.6982   16.4135 N   0  0  0  0  0  0  0  0  0  0  0  0
    1.3852  -28.3006   17.3960 C   0  0  0  0  0  0  0  0  0  0  0  0
    0.5586  -29.2565   18.0941 C   0  0  0  0  0  0  0  0  0  0  0  0
   -0.5986  -29.8316   17.5355 C   0  0  0  0  0  0  0  0  0  0  0  0
   -2.2722  -31.1752   17.8465 H   0  0  0  0  0  0  0  0  0  0  0  0
   -1.5333  -31.7417   20.1687 H   0  0  0  0  0  0  0  0  0  0  0  0
    2.2995  -29.3396   20.9691 H   0  0  0  0  0  0  0  0  0  0  0  0
    3.6788  -27.6682   19.7885 H   0  0  0  0  0  0  0  0  0  0  0  0
    7.3808  -24.3607   18.3227 H   0  0  0  0  0  0  0  0  0  0  0  0
    8.5894  -22.1033   17.3412 H   0  0  0  0  0  0  0  0  0  0  0  0
    5.5694  -22.9645   14.8195 H   0  0  0  0  0  0  0  0  0  0  0  0
    3.0240  -23.4734   14.5620 H   0  0  0  0  0  0  0  0  0  0  0  0
    1.6059  -21.6049   15.6474 H   0  0  0  0  0  0  0  0  0  0  0  0
    1.7919  -22.4741   17.2172 H   0  0  0  0  0  0  0  0  0  0  0  0
    3.9122  -21.2181   15.3899 H   0  0  0  0  0  0  0  0  0  0  0  0
    4.1484  -21.8631   17.0731 H   0  0  0  0  0  0  0  0  0  0  0  0
    1.0905  -27.9968   16.3899 H   0  0  0  0  0  0  0  0  0  0  0  0
   -0.9061  -29.5681   16.5261 H   0  0  0  0  0  0  0  0  0  0  0  0
  1  2  2  0
  2  3  1  0
  3  4  2  0
  4  5  1  0
  5  6  2  0
  6  7  1  0
  7  8  1  0
  8  9  1  0
  9 10  2  0
 10 11  1  0
 11 12  2  0
 12 13  1  0
 13 14  2  0
 14 15  1  0
 10 16  1  0
 16 17  1  0
 17 18  1  0
 18 19  1  0
 16 20  1  0
  7 21  2  0
 21 22  1  0
 22 23  2  0
 23  1  1  0
 22  4  1  0
 20  8  2  0
 15 11  1  0
 19 17  1  0
  1 24  1  0
  2 25  1  0
  5 26  1  0
  6 27  1  0
 12 28  1  0
 13 29  1  0
 15 30  1  0
 17 31  1  0
 18 32  1  0
 18 33  1  0
 19 34  1  0
 19 35  1  0
 21 36  1  0
 23 37  1  0
M  END
>  <Energy>  (935) 
105.37890366911374

>  <compound_id>  (935) 
46865

>  <target_id>  (935) 
1

>  <reference_id>  (935) 
122

>  <inspiration_ids>  (935) 
[122, 68]

>  <energy_score>  (935) 
7.213069285803442

>  <distance_score>  (935) 
17.135898087218276

>  <path>  (935) 
/opt/xchem-fragalysis-2/maxwin/BulkDock/SCRATCH/511023/C46865-P122/C46865-P122.minimised.mol

>  <scratch_subdir>  (935) 
/opt/xchem-fragalysis-2/maxwin/BulkDock/SCRATCH/511023/C46865-P122

>  <fragmenstein_runtime>  (935) 
11.146135807037354

>  <fragmenstein_outcome>  (935) 
too moved

>  <fragmenstein_mode>  (935) 
expansion

>  <fragmenstein_error>  (935) 


$$$$
C46865-P68
     RDKit          3D

 37 41  0  0  0  0  0  0  0  0999 V2000
   -5.4197  -27.4560   19.7865 C   0  0  0  0  0  0  0  0  0  0  0  0
   -5.2490  -28.6216   19.0738 C   0  0  0  0  0  0  0  0  0  0  0  0
   -4.0584  -29.2346   18.9529 N   0  0  0  0  0  0  0  0  0  0  0  0
   -2.9709  -28.7186   19.5458 C   0  0  0  0  0  0  0  0  0  0  0  0
   -1.7252  -29.3359   19.4604 C   0  0  0  0  0  0  0  0  0  0  0  0
   -0.5357  -28.6634   19.8190 C   0  0  0  0  0  0  0  0  0  0  0  0
   -0.5773  -27.3376   20.2724 C   0  0  0  0  0  0  0  0  0  0  0  0
    0.5878  -26.3844   20.0255 C   0  0  0  0  0  0  0  0  0  0  0  0
    0.3958  -25.0393   19.6213 N   0  0  0  0  0  0  0  0  0  0  0  0
    1.4954  -24.6462   18.9537 C   0  0  0  0  0  0  0  0  0  0  0  0
    1.8052  -23.3109   18.3475 C   0  0  0  0  0  0  0  0  0  0  0  0
    1.4833  -22.0155   18.7369 C   0  0  0  0  0  0  0  0  0  0  0  0
    2.1322  -21.1406   17.8281 C   0  0  0  0  0  0  0  0  0  0  0  0
    2.8912  -21.8050   16.9590 N   0  0  0  0  0  0  0  0  0  0  0  0
    2.6713  -23.0933   17.2893 N   0  0  0  0  0  0  0  0  0  0  0  0
    2.3934  -25.7087   19.0698 N   0  0  0  0  0  0  0  0  0  0  0  0
    3.6123  -25.9249   18.1866 C   0  0  0  0  0  0  0  0  0  0  0  0
    5.0207  -25.4149   18.3428 C   0  0  0  0  0  0  0  0  0  0  0  0
    4.7246  -26.8549   18.6276 C   0  0  0  0  0  0  0  0  0  0  0  0
    1.8440  -26.7862   19.7614 N   0  0  0  0  0  0  0  0  0  0  0  0
   -1.8484  -26.8664   20.6205 C   0  0  0  0  0  0  0  0  0  0  0  0
   -3.0387  -27.5028   20.2216 C   0  0  0  0  0  0  0  0  0  0  0  0
   -4.2930  -26.8855   20.3686 C   0  0  0  0  0  0  0  0  0  0  0  0
   -6.3960  -26.9952   19.8763 H   0  0  0  0  0  0  0  0  0  0  0  0
   -6.0770  -29.1231   18.5833 H   0  0  0  0  0  0  0  0  0  0  0  0
   -1.6641  -30.3086   18.9762 H   0  0  0  0  0  0  0  0  0  0  0  0
    0.4162  -29.1259   19.5642 H   0  0  0  0  0  0  0  0  0  0  0  0
    0.8784  -21.7478   19.5900 H   0  0  0  0  0  0  0  0  0  0  0  0
    2.0971  -20.0622   17.7757 H   0  0  0  0  0  0  0  0  0  0  0  0
    3.1335  -23.7929   16.7253 H   0  0  0  0  0  0  0  0  0  0  0  0
    3.3114  -25.9995   17.1446 H   0  0  0  0  0  0  0  0  0  0  0  0
    5.5715  -25.1864   17.4343 H   0  0  0  0  0  0  0  0  0  0  0  0
    5.2978  -24.7667   19.1561 H   0  0  0  0  0  0  0  0  0  0  0  0
    4.7374  -27.1861   19.6594 H   0  0  0  0  0  0  0  0  0  0  0  0
    5.0590  -27.6026   17.9176 H   0  0  0  0  0  0  0  0  0  0  0  0
   -1.9511  -25.9070   21.0823 H   0  0  0  0  0  0  0  0  0  0  0  0
   -4.3837  -25.9417   20.9008 H   0  0  0  0  0  0  0  0  0  0  0  0
  1  2  2  0
  2  3  1  0
  3  4  2  0
  4  5  1  0
  5  6  2  0
  6  7  1  0
  7  8  1  0
  8  9  1  0
  9 10  2  0
 10 11  1  0
 11 12  2  0
 12 13  1  0
 13 14  2  0
 14 15  1  0
 10 16  1  0
 16 17  1  0
 17 18  1  0
 18 19  1  0
 16 20  1  0
  7 21  2  0
 21 22  1  0
 22 23  2  0
 23  1  1  0
 22  4  1  0
 20  8  2  0
 15 11  1  0
 19 17  1  0
  1 24  1  0
  2 25  1  0
  5 26  1  0
  6 27  1  0
 12 28  1  0
 13 29  1  0
 15 30  1  0
 17 31  1  0
 18 32  1  0
 18 33  1  0
 19 34  1  0
 19 35  1  0
 21 36  1  0
 23 37  1  0
M  END
>  <Energy>  (936) 
110.41907237024137

>  <compound_id>  (936) 
46865

>  <target_id>  (936) 
1

>  <reference_id>  (936) 
68

>  <inspiration_ids>  (936) 
[122, 68]

>  <energy_score>  (936) 
12.253237986936995

>  <distance_score>  (936) 
16.318585502413665

>  <path>  (936) 
/opt/xchem-fragalysis-2/maxwin/BulkDock/SCRATCH/511023/C46865-P68/C46865-P68.minimised.mol

>  <scratch_subdir>  (936) 
/opt/xchem-fragalysis-2/maxwin/BulkDock/SCRATCH/511023/C46865-P68

>  <fragmenstein_runtime>  (936) 
12.364147663116455

>  <fragmenstein_outcome>  (936) 
too moved

>  <fragmenstein_mode>  (936) 
expansion

>  <fragmenstein_error>  (936) 


$$$$
C46866-P122
     RDKit          3D

 39 42  0  0  0  0  0  0  0  0999 V2000
   -9.0534  -18.4201   22.0541 C   0  0  0  0  0  0  0  0  0  0  0  0
   -8.1329  -19.6044   21.8100 C   0  0  0  0  0  0  0  0  0  0  0  0
   -8.5820  -20.4227   20.6007 C   0  0  0  0  0  0  0  0  0  0  0  0
   -7.7272  -21.5691   20.3567 N   0  0  0  0  0  0  0  0  0  0  0  0
   -8.1498  -22.7893   20.7646 N   0  0  0  0  0  0  0  0  0  0  0  0
   -7.0941  -23.5887   20.5326 C   0  0  0  0  0  0  0  0  0  0  0  0
   -7.1325  -25.0462   20.9307 C   0  0  0  0  0  0  0  0  0  0  0  0
   -8.3243  -25.6075   21.4357 C   0  0  0  0  0  0  0  0  0  0  0  0
   -8.4051  -26.9423   21.8956 C   0  0  0  0  0  0  0  0  0  0  0  0
   -7.3178  -27.7969   21.8776 C   0  0  0  0  0  0  0  0  0  0  0  0
   -7.4430  -29.0469   22.3711 N   0  0  0  0  0  0  0  0  0  0  0  0
   -6.3808  -29.8745   22.2862 C   0  0  0  0  0  0  0  0  0  0  0  0
   -5.1665  -29.4896   21.7525 C   0  0  0  0  0  0  0  0  0  0  0  0
   -5.0324  -28.1767   21.2886 C   0  0  0  0  0  0  0  0  0  0  0  0
   -6.1184  -27.2853   21.3386 C   0  0  0  0  0  0  0  0  0  0  0  0
   -6.0362  -25.9212   20.8800 C   0  0  0  0  0  0  0  0  0  0  0  0
   -6.0272  -22.8582   19.9407 N   0  0  0  0  0  0  0  0  0  0  0  0
   -6.4584  -21.5894   19.8160 C   0  0  0  0  0  0  0  0  0  0  0  0
   -5.7510  -20.3907   19.2847 C   0  0  0  0  0  0  0  0  0  0  0  0
   -6.1347  -19.3435   18.4443 C   0  0  0  0  0  0  0  0  0  0  0  0
   -5.0414  -18.4462   18.3491 C   0  0  0  0  0  0  0  0  0  0  0  0
   -4.0073  -18.8845   19.0573 N   0  0  0  0  0  0  0  0  0  0  0  0
   -4.4852  -20.0149   19.6483 N   0  0  0  0  0  0  0  0  0  0  0  0
   -9.0629  -17.7474   21.1906 H   0  0  0  0  0  0  0  0  0  0  0  0
  -10.0790  -18.7524   22.2439 H   0  0  0  0  0  0  0  0  0  0  0  0
   -8.7139  -17.8498   22.9245 H   0  0  0  0  0  0  0  0  0  0  0  0
   -7.1130  -19.2330   21.6638 H   0  0  0  0  0  0  0  0  0  0  0  0
   -8.1115  -20.2390   22.7041 H   0  0  0  0  0  0  0  0  0  0  0  0
   -9.6008  -20.7991   20.7551 H   0  0  0  0  0  0  0  0  0  0  0  0
   -8.6051  -19.8176   19.6903 H   0  0  0  0  0  0  0  0  0  0  0  0
   -9.2240  -24.9971   21.5038 H   0  0  0  0  0  0  0  0  0  0  0  0
   -9.3501  -27.3139   22.2881 H   0  0  0  0  0  0  0  0  0  0  0  0
   -6.5397  -30.8774   22.6715 H   0  0  0  0  0  0  0  0  0  0  0  0
   -4.3406  -30.1898   21.7075 H   0  0  0  0  0  0  0  0  0  0  0  0
   -4.0771  -27.8551   20.8822 H   0  0  0  0  0  0  0  0  0  0  0  0
   -5.0859  -25.5502   20.4985 H   0  0  0  0  0  0  0  0  0  0  0  0
   -7.0888  -19.2445   17.9459 H   0  0  0  0  0  0  0  0  0  0  0  0
   -4.9569  -17.5261   17.7843 H   0  0  0  0  0  0  0  0  0  0  0  0
   -3.9102  -20.4848   20.3359 H   0  0  0  0  0  0  0  0  0  0  0  0
  1  2  1  0
  2  3  1  0
  3  4  1  0
  4  5  1  0
  5  6  2  0
  6  7  1  0
  7  8  2  0
  8  9  1  0
  9 10  2  0
 10 11  1  0
 11 12  2  0
 12 13  1  0
 13 14  2  0
 14 15  1  0
 15 16  2  0
  6 17  1  0
 17 18  2  0
 18 19  1  0
 19 20  2  0
 20 21  1  0
 21 22  2  0
 22 23  1  0
 18  4  1  0
 23 19  1  0
 16  7  1  0
 15 10  1  0
  1 24  1  0
  1 25  1  0
  1 26  1  0
  2 27  1  0
  2 28  1  0
  3 29  1  0
  3 30  1  0
  8 31  1  0
  9 32  1  0
 12 33  1  0
 13 34  1  0
 14 35  1  0
 16 36  1  0
 20 37  1  0
 21 38  1  0
 23 39  1  0
M  END
>  <Energy>  (937) 
62.033657064078731

>  <compound_id>  (937) 
46866

>  <target_id>  (937) 
1

>  <reference_id>  (937) 
122

>  <inspiration_ids>  (937) 
[122, 68]

>  <energy_score>  (937) 
-18.850121909464463

>  <distance_score>  (937) 
16.33198181249722

>  <path>  (937) 
/opt/xchem-fragalysis-2/maxwin/BulkDock/SCRATCH/511023/C46866-P122/C46866-P122.minimised.mol

>  <scratch_subdir>  (937) 
/opt/xchem-fragalysis-2/maxwin/BulkDock/SCRATCH/511023/C46866-P122

>  <fragmenstein_runtime>  (937) 
12.104864597320557

>  <fragmenstein_outcome>  (937) 
too moved

>  <fragmenstein_mode>  (937) 
expansion

>  <fragmenstein_error>  (937) 


$$$$
C46866-P68
     RDKit          3D

 39 42  0  0  0  0  0  0  0  0999 V2000
   -9.2846  -18.1118   21.7075 C   0  0  0  0  0  0  0  0  0  0  0  0
   -8.9314  -19.1960   20.7027 C   0  0  0  0  0  0  0  0  0  0  0  0
   -7.6548  -19.9286   21.1043 C   0  0  0  0  0  0  0  0  0  0  0  0
   -7.2874  -20.9593   20.1549 N   0  0  0  0  0  0  0  0  0  0  0  0
   -7.6688  -22.2432   20.4076 N   0  0  0  0  0  0  0  0  0  0  0  0
   -7.1256  -22.9198   19.3872 C   0  0  0  0  0  0  0  0  0  0  0  0
   -7.1670  -24.3977   19.2782 C   0  0  0  0  0  0  0  0  0  0  0  0
   -6.1360  -25.0866   18.6316 C   0  0  0  0  0  0  0  0  0  0  0  0
   -6.1569  -26.4855   18.5104 C   0  0  0  0  0  0  0  0  0  0  0  0
   -7.2101  -27.2393   18.9887 C   0  0  0  0  0  0  0  0  0  0  0  0
   -7.1892  -28.5619   18.7890 N   0  0  0  0  0  0  0  0  0  0  0  0
   -8.2410  -29.2643   19.2409 C   0  0  0  0  0  0  0  0  0  0  0  0
   -9.3347  -28.7212   19.8789 C   0  0  0  0  0  0  0  0  0  0  0  0
   -9.3390  -27.3483   20.0951 C   0  0  0  0  0  0  0  0  0  0  0  0
   -8.2629  -26.5715   19.6497 C   0  0  0  0  0  0  0  0  0  0  0  0
   -8.2191  -25.1642   19.8150 C   0  0  0  0  0  0  0  0  0  0  0  0
   -6.5010  -22.0693   18.4594 N   0  0  0  0  0  0  0  0  0  0  0  0
   -6.6198  -20.8342   18.9526 C   0  0  0  0  0  0  0  0  0  0  0  0
   -6.1400  -19.5976   18.3118 C   0  0  0  0  0  0  0  0  0  0  0  0
   -5.6897  -18.3670   18.7711 C   0  0  0  0  0  0  0  0  0  0  0  0
   -5.2993  -17.6271   17.6277 C   0  0  0  0  0  0  0  0  0  0  0  0
   -5.5093  -18.3073   16.5050 N   0  0  0  0  0  0  0  0  0  0  0  0
   -6.0785  -19.4557   16.9422 N   0  0  0  0  0  0  0  0  0  0  0  0
  -10.2060  -17.6028   21.4084 H   0  0  0  0  0  0  0  0  0  0  0  0
   -9.4383  -18.5356   22.7051 H   0  0  0  0  0  0  0  0  0  0  0  0
   -8.4887  -17.3634   21.7707 H   0  0  0  0  0  0  0  0  0  0  0  0
   -9.7629  -19.9072   20.6284 H   0  0  0  0  0  0  0  0  0  0  0  0
   -8.8161  -18.7427   19.7113 H   0  0  0  0  0  0  0  0  0  0  0  0
   -6.8137  -19.2402   21.2038 H   0  0  0  0  0  0  0  0  0  0  0  0
   -7.7827  -20.4120   22.0806 H   0  0  0  0  0  0  0  0  0  0  0  0
   -5.2968  -24.5357   18.2106 H   0  0  0  0  0  0  0  0  0  0  0  0
   -5.3366  -26.9875   18.0023 H   0  0  0  0  0  0  0  0  0  0  0  0
   -8.1042  -30.3268   19.1722 H   0  0  0  0  0  0  0  0  0  0  0  0
  -10.1261  -29.3577   20.2508 H   0  0  0  0  0  0  0  0  0  0  0  0
  -10.1681  -26.8917   20.6272 H   0  0  0  0  0  0  0  0  0  0  0  0
   -9.0305  -24.6561   20.3334 H   0  0  0  0  0  0  0  0  0  0  0  0
   -5.6006  -18.0609   19.8005 H   0  0  0  0  0  0  0  0  0  0  0  0
   -4.8721  -16.6415   17.5544 H   0  0  0  0  0  0  0  0  0  0  0  0
   -6.3399  -20.1581   16.2569 H   0  0  0  0  0  0  0  0  0  0  0  0
  1  2  1  0
  2  3  1  0
  3  4  1  0
  4  5  1  0
  5  6  2  0
  6  7  1  0
  7  8  2  0
  8  9  1  0
  9 10  2  0
 10 11  1  0
 11 12  2  0
 12 13  1  0
 13 14  2  0
 14 15  1  0
 15 16  2  0
  6 17  1  0
 17 18  2  0
 18 19  1  0
 19 20  2  0
 20 21  1  0
 21 22  2  0
 22 23  1  0
 18  4  1  0
 23 19  1  0
 16  7  1  0
 15 10  1  0
  1 24  1  0
  1 25  1  0
  1 26  1  0
  2 27  1  0
  2 28  1  0
  3 29  1  0
  3 30  1  0
  8 31  1  0
  9 32  1  0
 12 33  1  0
 13 34  1  0
 14 35  1  0
 16 36  1  0
 20 37  1  0
 21 38  1  0
 23 39  1  0
M  END
>  <Energy>  (938) 
54.829097157331617

>  <compound_id>  (938) 
46866

>  <target_id>  (938) 
1

>  <reference_id>  (938) 
68

>  <inspiration_ids>  (938) 
[122, 68]

>  <energy_score>  (938) 
-26.054681816206255

>  <distance_score>  (938) 
16.66903086620749

>  <path>  (938) 
/opt/xchem-fragalysis-2/maxwin/BulkDock/SCRATCH/511023/C46866-P68/C46866-P68.minimised.mol

>  <scratch_subdir>  (938) 
/opt/xchem-fragalysis-2/maxwin/BulkDock/SCRATCH/511023/C46866-P68

>  <fragmenstein_runtime>  (938) 
25.236604928970337

>  <fragmenstein_outcome>  (938) 
too moved

>  <fragmenstein_mode>  (938) 
expansion

>  <fragmenstein_error>  (938) 


$$$$
C46867-P122
     RDKit          3D

 38 40  0  0  0  0  0  0  0  0999 V2000
    0.0910  -26.0040   20.1214 O   0  0  0  0  0  0  0  0  0  0  0  0
   -0.1869  -26.3589   19.0098 C   0  0  0  0  0  0  0  0  0  0  0  0
    0.1272  -25.7646   17.7220 N   0  0  0  0  0  0  0  0  0  0  0  0
    0.8077  -24.4752   17.3760 C   0  0  0  0  0  0  0  0  0  0  0  0
    2.1074  -24.4989   16.5108 C   0  0  0  0  0  0  0  0  0  0  0  0
    2.8413  -23.2149   16.2906 N   0  0  0  0  0  0  0  0  0  0  0  0
    3.0071  -22.4058   15.0959 C   0  0  0  0  0  0  0  0  0  0  0  0
    2.5311  -22.5224   14.0051 O   0  0  0  0  0  0  0  0  0  0  0  0
    4.0121  -21.3090   15.2237 C   0  0  0  0  0  0  0  0  0  0  0  0
    5.3873  -21.4031   15.4224 C   0  0  0  0  0  0  0  0  0  0  0  0
    5.9445  -20.1730   15.0166 C   0  0  0  0  0  0  0  0  0  0  0  0
    5.0062  -19.2681   14.7435 N   0  0  0  0  0  0  0  0  0  0  0  0
    3.8369  -19.9840   14.8218 N   0  0  0  0  0  0  0  0  0  0  0  0
   -1.1194  -27.6060   19.0229 C   0  0  0  0  0  0  0  0  0  0  0  0
   -1.1848  -28.5733   18.0214 C   0  0  0  0  0  0  0  0  0  0  0  0
   -1.9803  -29.7438   18.1845 C   0  0  0  0  0  0  0  0  0  0  0  0
   -2.7349  -30.0153   19.3270 C   0  0  0  0  0  0  0  0  0  0  0  0
   -3.4380  -31.1670   19.4287 N   0  0  0  0  0  0  0  0  0  0  0  0
   -4.1542  -31.3825   20.5572 C   0  0  0  0  0  0  0  0  0  0  0  0
   -4.2015  -30.4888   21.6073 C   0  0  0  0  0  0  0  0  0  0  0  0
   -3.4678  -29.3062   21.4956 C   0  0  0  0  0  0  0  0  0  0  0  0
   -2.7065  -29.0450   20.3422 C   0  0  0  0  0  0  0  0  0  0  0  0
   -1.9108  -27.8656   20.1786 C   0  0  0  0  0  0  0  0  0  0  0  0
   -0.3402  -26.2896   16.9931 H   0  0  0  0  0  0  0  0  0  0  0  0
    1.0278  -23.9987   18.3325 H   0  0  0  0  0  0  0  0  0  0  0  0
    0.0494  -23.8599   16.8865 H   0  0  0  0  0  0  0  0  0  0  0  0
    1.8735  -24.9126   15.5241 H   0  0  0  0  0  0  0  0  0  0  0  0
    2.8296  -25.1736   16.9832 H   0  0  0  0  0  0  0  0  0  0  0  0
    3.3347  -22.7701   17.0656 H   0  0  0  0  0  0  0  0  0  0  0  0
    5.9235  -22.3076   15.6729 H   0  0  0  0  0  0  0  0  0  0  0  0
    6.9887  -19.8981   14.9389 H   0  0  0  0  0  0  0  0  0  0  0  0
    2.9640  -19.5232   14.5592 H   0  0  0  0  0  0  0  0  0  0  0  0
   -0.5888  -28.4828   17.1177 H   0  0  0  0  0  0  0  0  0  0  0  0
   -1.9856  -30.4861   17.3869 H   0  0  0  0  0  0  0  0  0  0  0  0
   -4.7077  -32.3164   20.5930 H   0  0  0  0  0  0  0  0  0  0  0  0
   -4.7945  -30.7049   22.4904 H   0  0  0  0  0  0  0  0  0  0  0  0
   -3.4910  -28.5907   22.3143 H   0  0  0  0  0  0  0  0  0  0  0  0
   -1.8936  -27.1385   20.9927 H   0  0  0  0  0  0  0  0  0  0  0  0
  1  2  2  0
  2  3  1  0
  3  4  1  0
  4  5  1  0
  5  6  1  0
  6  7  1  0
  7  8  2  0
  7  9  1  0
  9 10  2  0
 10 11  1  0
 11 12  2  0
 12 13  1  0
  2 14  1  0
 14 15  2  0
 15 16  1  0
 16 17  2  0
 17 18  1  0
 18 19  2  0
 19 20  1  0
 20 21  2  0
 21 22  1  0
 22 23  2  0
 13  9  1  0
 23 14  1  0
 22 17  1  0
  3 24  1  0
  4 25  1  0
  4 26  1  0
  5 27  1  0
  5 28  1  0
  6 29  1  0
 10 30  1  0
 11 31  1  0
 13 32  1  0
 15 33  1  0
 16 34  1  0
 19 35  1  0
 20 36  1  0
 21 37  1  0
 23 38  1  0
M  END
>  <Energy>  (939) 
36.499366773316353

>  <compound_id>  (939) 
46867

>  <target_id>  (939) 
1

>  <reference_id>  (939) 
122

>  <inspiration_ids>  (939) 
[122, 68]

>  <energy_score>  (939) 
8.04611589327908

>  <distance_score>  (939) 
14.856803721786404

>  <path>  (939) 
/opt/xchem-fragalysis-2/maxwin/BulkDock/SCRATCH/511023/C46867-P122/C46867-P122.minimised.mol

>  <scratch_subdir>  (939) 
/opt/xchem-fragalysis-2/maxwin/BulkDock/SCRATCH/511023/C46867-P122

>  <fragmenstein_runtime>  (939) 
19.46704125404358

>  <fragmenstein_outcome>  (939) 
too moved

>  <fragmenstein_mode>  (939) 
expansion

>  <fragmenstein_error>  (939) 


$$$$
C46867-P68
     RDKit          3D

 38 40  0  0  0  0  0  0  0  0999 V2000
   -6.3190  -18.0794   20.4804 O   0  0  0  0  0  0  0  0  0  0  0  0
   -6.0965  -17.5303   21.5316 C   0  0  0  0  0  0  0  0  0  0  0  0
   -4.8677  -16.6419   21.9554 N   0  0  0  0  0  0  0  0  0  0  0  0
   -3.3625  -16.2641   21.0849 C   0  0  0  0  0  0  0  0  0  0  0  0
   -2.0406  -15.2852   20.9579 C   0  0  0  0  0  0  0  0  0  0  0  0
   -1.4615  -13.5904   21.3921 N   0  0  0  0  0  0  0  0  0  0  0  0
   -0.3598  -13.0262   22.7289 C   0  0  0  0  0  0  0  0  0  0  0  0
    0.1418  -13.7167   23.5956 O   0  0  0  0  0  0  0  0  0  0  0  0
    0.1307  -11.4583   22.9038 C   0  0  0  0  0  0  0  0  0  0  0  0
    0.9926  -11.0028   23.9073 C   0  0  0  0  0  0  0  0  0  0  0  0
    1.3780   -9.6951   23.5628 C   0  0  0  0  0  0  0  0  0  0  0  0
    0.8185   -9.3070   22.4229 N   0  0  0  0  0  0  0  0  0  0  0  0
    0.0476  -10.3551   22.0539 N   0  0  0  0  0  0  0  0  0  0  0  0
   -7.2241  -17.9382   22.6028 C   0  0  0  0  0  0  0  0  0  0  0  0
   -8.3283  -18.5508   21.9360 C   0  0  0  0  0  0  0  0  0  0  0  0
   -8.8134  -19.8739   22.2089 C   0  0  0  0  0  0  0  0  0  0  0  0
   -8.2866  -20.6819   23.2024 C   0  0  0  0  0  0  0  0  0  0  0  0
   -8.6611  -21.9878   23.3144 N   0  0  0  0  0  0  0  0  0  0  0  0
   -8.0809  -22.7481   24.2640 C   0  0  0  0  0  0  0  0  0  0  0  0
   -7.1745  -22.2361   25.1672 C   0  0  0  0  0  0  0  0  0  0  0  0
   -6.8314  -20.8761   25.0691 C   0  0  0  0  0  0  0  0  0  0  0  0
   -7.3483  -20.0563   24.0405 C   0  0  0  0  0  0  0  0  0  0  0  0
   -6.8843  -18.6803   23.7637 C   0  0  0  0  0  0  0  0  0  0  0  0
   -5.0304  -16.2647   22.8801 H   0  0  0  0  0  0  0  0  0  0  0  0
   -2.8205  -17.1735   21.2803 H   0  0  0  0  0  0  0  0  0  0  0  0
   -3.4815  -16.5502   20.0487 H   0  0  0  0  0  0  0  0  0  0  0  0
   -1.2187  -15.9484   21.3140 H   0  0  0  0  0  0  0  0  0  0  0  0
   -1.9236  -15.3153   19.8565 H   0  0  0  0  0  0  0  0  0  0  0  0
   -1.8010  -12.7786   20.8567 H   0  0  0  0  0  0  0  0  0  0  0  0
    1.3290  -11.5826   24.7574 H   0  0  0  0  0  0  0  0  0  0  0  0
    2.0453   -9.0218   24.0865 H   0  0  0  0  0  0  0  0  0  0  0  0
   -0.3831  -10.3033   21.1313 H   0  0  0  0  0  0  0  0  0  0  0  0
   -8.6857  -18.0936   21.0087 H   0  0  0  0  0  0  0  0  0  0  0  0
   -9.5624  -20.2954   21.5403 H   0  0  0  0  0  0  0  0  0  0  0  0
   -8.3866  -23.7890   24.2827 H   0  0  0  0  0  0  0  0  0  0  0  0
   -6.7389  -22.8669   25.9336 H   0  0  0  0  0  0  0  0  0  0  0  0
   -6.1098  -20.4706   25.7742 H   0  0  0  0  0  0  0  0  0  0  0  0
   -6.1021  -18.2863   24.4047 H   0  0  0  0  0  0  0  0  0  0  0  0
  1  2  2  0
  2  3  1  0
  3  4  1  0
  4  5  1  0
  5  6  1  0
  6  7  1  0
  7  8  2  0
  7  9  1  0
  9 10  2  0
 10 11  1  0
 11 12  2  0
 12 13  1  0
  2 14  1  0
 14 15  2  0
 15 16  1  0
 16 17  2  0
 17 18  1  0
 18 19  2  0
 19 20  1  0
 20 21  2  0
 21 22  1  0
 22 23  2  0
 13  9  1  0
 23 14  1  0
 22 17  1  0
  3 24  1  0
  4 25  1  0
  4 26  1  0
  5 27  1  0
  5 28  1  0
  6 29  1  0
 10 30  1  0
 11 31  1  0
 13 32  1  0
 15 33  1  0
 16 34  1  0
 19 35  1  0
 20 36  1  0
 21 37  1  0
 23 38  1  0
M  END
>  <Energy>  (940) 
281.4314083090315

>  <compound_id>  (940) 
46867

>  <target_id>  (940) 
1

>  <reference_id>  (940) 
68

>  <inspiration_ids>  (940) 
[122, 68]

>  <energy_score>  (940) 
252.97815742899888

>  <distance_score>  (940) 
16.283596779788347

>  <path>  (940) 
/opt/xchem-fragalysis-2/maxwin/BulkDock/SCRATCH/511023/C46867-P68/C46867-P68.minimised.mol

>  <scratch_subdir>  (940) 
/opt/xchem-fragalysis-2/maxwin/BulkDock/SCRATCH/511023/C46867-P68

>  <fragmenstein_runtime>  (940) 
27.255157232284546

>  <fragmenstein_outcome>  (940) 
too moved

>  <fragmenstein_mode>  (940) 
expansion

>  <fragmenstein_error>  (940) 


$$$$
C46871-P122
     RDKit          3D

 42 44  0  0  0  0  0  0  0  0999 V2000
   -3.3878  -27.5274   25.7080 C   0  0  0  0  0  0  0  0  0  0  0  0
   -2.7440  -28.2770   24.6296 N   0  0  0  0  0  0  0  0  0  0  0  0
   -2.2267  -29.6166   25.1892 C   0  0  0  0  0  0  0  0  0  0  0  0
   -3.1503  -30.7584   25.7839 C   0  0  0  0  0  0  0  0  0  0  0  0
   -2.9310  -31.3561   27.0935 C   0  0  0  0  0  0  0  0  0  0  0  0
   -3.5978  -32.5277   27.7520 C   0  0  0  0  0  0  0  0  0  0  0  0
   -4.6296  -33.3199   27.1883 C   0  0  0  0  0  0  0  0  0  0  0  0
   -5.6324  -34.8540   27.8318 N   0  0  0  0  0  0  0  0  0  0  0  0
   -6.5736  -35.8642   26.4353 C   0  0  0  0  0  0  0  0  0  0  0  0
   -6.8317  -35.0927   24.6766 C   0  0  0  0  0  0  0  0  0  0  0  0
   -6.3235  -33.2207   24.2313 C   0  0  0  0  0  0  0  0  0  0  0  0
   -4.8652  -32.5237   25.4087 C   0  0  0  0  0  0  0  0  0  0  0  0
   -4.0907  -31.3808   24.9750 C   0  0  0  0  0  0  0  0  0  0  0  0
   -1.5642  -27.4024   24.0225 C   0  0  0  0  0  0  0  0  0  0  0  0
   -1.6515  -25.7508   23.7191 C   0  0  0  0  0  0  0  0  0  0  0  0
   -1.5326  -25.0525   24.9576 O   0  0  0  0  0  0  0  0  0  0  0  0
   -0.6360  -25.0952   22.7804 C   0  0  0  0  0  0  0  0  0  0  0  0
   -0.8339  -24.2608   21.6820 C   0  0  0  0  0  0  0  0  0  0  0  0
    0.4251  -24.1250   21.0813 C   0  0  0  0  0  0  0  0  0  0  0  0
    1.3763  -24.7224   21.7973 N   0  0  0  0  0  0  0  0  0  0  0  0
    0.7319  -25.1912   22.8799 N   0  0  0  0  0  0  0  0  0  0  0  0
    1.5001  -25.8383   23.9176 C   0  0  0  0  0  0  0  0  0  0  0  0
   -2.6856  -27.2716   26.5088 H   0  0  0  0  0  0  0  0  0  0  0  0
   -4.2128  -28.1026   26.1420 H   0  0  0  0  0  0  0  0  0  0  0  0
   -3.8321  -26.6043   25.3224 H   0  0  0  0  0  0  0  0  0  0  0  0
   -1.6718  -30.0996   24.3737 H   0  0  0  0  0  0  0  0  0  0  0  0
   -1.4846  -29.3816   25.9641 H   0  0  0  0  0  0  0  0  0  0  0  0
   -2.1406  -30.8969   27.6993 H   0  0  0  0  0  0  0  0  0  0  0  0
   -3.2489  -32.7992   28.7485 H   0  0  0  0  0  0  0  0  0  0  0  0
   -6.9226  -36.8346   26.7816 H   0  0  0  0  0  0  0  0  0  0  0  0
   -7.4398  -35.6345   23.9504 H   0  0  0  0  0  0  0  0  0  0  0  0
   -6.5245  -32.7886   23.2442 H   0  0  0  0  0  0  0  0  0  0  0  0
   -4.2847  -30.9992   23.9724 H   0  0  0  0  0  0  0  0  0  0  0  0
   -1.3158  -27.8843   23.0698 H   0  0  0  0  0  0  0  0  0  0  0  0
   -0.7162  -27.5319   24.7059 H   0  0  0  0  0  0  0  0  0  0  0  0
   -2.6582  -25.5723   23.3213 H   0  0  0  0  0  0  0  0  0  0  0  0
   -1.7457  -24.1229   24.7649 H   0  0  0  0  0  0  0  0  0  0  0  0
   -1.7841  -23.9117   21.3023 H   0  0  0  0  0  0  0  0  0  0  0  0
    0.6920  -23.6461   20.1503 H   0  0  0  0  0  0  0  0  0  0  0  0
    1.0306  -25.6545   24.8856 H   0  0  0  0  0  0  0  0  0  0  0  0
    1.5375  -26.9078   23.6985 H   0  0  0  0  0  0  0  0  0  0  0  0
    2.5105  -25.4198   23.9255 H   0  0  0  0  0  0  0  0  0  0  0  0
  1  2  1  0
  2  3  1  0
  3  4  1  0
  4  5  2  0
  5  6  1  0
  6  7  2  0
  7  8  1  0
  8  9  2  0
  9 10  1  0
 10 11  2  0
 11 12  1  0
 12 13  2  0
  2 14  1  0
 14 15  1  0
 15 16  1  0
 15 17  1  0
 17 18  2  0
 18 19  1  0
 19 20  2  0
 20 21  1  0
 21 22  1  0
 13  4  1  0
 21 17  1  0
 12  7  1  0
  1 23  1  0
  1 24  1  0
  1 25  1  0
  3 26  1  0
  3 27  1  0
  5 28  1  0
  6 29  1  0
  9 30  1  0
 10 31  1  0
 11 32  1  0
 13 33  1  0
 14 34  1  0
 14 35  1  0
 15 36  1  0
 16 37  1  0
 18 38  1  0
 19 39  1  0
 22 40  1  0
 22 41  1  0
 22 42  1  0
M  END
>  <Energy>  (941) 
694.86384552430422

>  <compound_id>  (941) 
46871

>  <target_id>  (941) 
1

>  <reference_id>  (941) 
122

>  <inspiration_ids>  (941) 
[122, 68]

>  <energy_score>  (941) 
586.7726493787875

>  <distance_score>  (941) 
16.532084371014637

>  <path>  (941) 
/opt/xchem-fragalysis-2/maxwin/BulkDock/SCRATCH/511023/C46871-P122/C46871-P122.minimised.mol

>  <scratch_subdir>  (941) 
/opt/xchem-fragalysis-2/maxwin/BulkDock/SCRATCH/511023/C46871-P122

>  <fragmenstein_runtime>  (941) 
14.223077058792114

>  <fragmenstein_outcome>  (941) 
too moved

>  <fragmenstein_mode>  (941) 
expansion

>  <fragmenstein_error>  (941) 


$$$$
C46871-P68
     RDKit          3D

 42 44  0  0  0  0  0  0  0  0999 V2000
   -2.1448  -15.6849   20.5481 C   0  0  0  0  0  0  0  0  0  0  0  0
   -1.1437  -16.5163   21.2492 N   0  0  0  0  0  0  0  0  0  0  0  0
   -2.3076  -18.1061   21.5267 C   0  0  0  0  0  0  0  0  0  0  0  0
   -2.8413  -19.6775   22.2200 C   0  0  0  0  0  0  0  0  0  0  0  0
   -4.2219  -19.9956   22.1211 C   0  0  0  0  0  0  0  0  0  0  0  0
   -4.7285  -21.3115   22.3545 C   0  0  0  0  0  0  0  0  0  0  0  0
   -3.9225  -22.4009   22.6721 C   0  0  0  0  0  0  0  0  0  0  0  0
   -4.4621  -23.6432   22.8055 N   0  0  0  0  0  0  0  0  0  0  0  0
   -3.6379  -24.6831   23.0556 C   0  0  0  0  0  0  0  0  0  0  0  0
   -2.2739  -24.5353   23.1959 C   0  0  0  0  0  0  0  0  0  0  0  0
   -1.7294  -23.2464   23.0771 C   0  0  0  0  0  0  0  0  0  0  0  0
   -2.5444  -22.1300   22.8029 C   0  0  0  0  0  0  0  0  0  0  0  0
   -2.0194  -20.7833   22.6024 C   0  0  0  0  0  0  0  0  0  0  0  0
    0.6702  -16.2010   20.5961 C   0  0  0  0  0  0  0  0  0  0  0  0
    2.2476  -15.1352   19.8390 C   0  0  0  0  0  0  0  0  0  0  0  0
    2.2157  -14.9718   18.3424 O   0  0  0  0  0  0  0  0  0  0  0  0
    3.5238  -13.8307   20.3733 C   0  0  0  0  0  0  0  0  0  0  0  0
    3.9980  -13.3079   21.6111 C   0  0  0  0  0  0  0  0  0  0  0  0
    4.9598  -12.3164   21.3291 C   0  0  0  0  0  0  0  0  0  0  0  0
    5.2529  -12.2704   20.0381 N   0  0  0  0  0  0  0  0  0  0  0  0
    4.5511  -13.3200   19.5200 N   0  0  0  0  0  0  0  0  0  0  0  0
    5.1903  -13.9726   18.4103 C   0  0  0  0  0  0  0  0  0  0  0  0
   -3.1458  -16.1138   20.5720 H   0  0  0  0  0  0  0  0  0  0  0  0
   -2.2548  -14.6926   21.0133 H   0  0  0  0  0  0  0  0  0  0  0  0
   -1.8085  -15.6243   19.5229 H   0  0  0  0  0  0  0  0  0  0  0  0
   -1.5128  -18.5296   22.1440 H   0  0  0  0  0  0  0  0  0  0  0  0
   -3.2896  -17.6325   21.6786 H   0  0  0  0  0  0  0  0  0  0  0  0
   -4.9287  -19.2295   21.8011 H   0  0  0  0  0  0  0  0  0  0  0  0
   -5.7980  -21.4836   22.2379 H   0  0  0  0  0  0  0  0  0  0  0  0
   -4.1196  -25.6522   23.1401 H   0  0  0  0  0  0  0  0  0  0  0  0
   -1.6381  -25.3907   23.3939 H   0  0  0  0  0  0  0  0  0  0  0  0
   -0.6528  -23.1191   23.1779 H   0  0  0  0  0  0  0  0  0  0  0  0
   -0.9369  -20.6450   22.6474 H   0  0  0  0  0  0  0  0  0  0  0  0
    0.6250  -16.2024   19.5222 H   0  0  0  0  0  0  0  0  0  0  0  0
    0.5923  -15.4576   21.3585 H   0  0  0  0  0  0  0  0  0  0  0  0
    2.7455  -16.0372   19.7215 H   0  0  0  0  0  0  0  0  0  0  0  0
    2.8059  -15.6368   17.9547 H   0  0  0  0  0  0  0  0  0  0  0  0
    3.6419  -13.5729   22.5941 H   0  0  0  0  0  0  0  0  0  0  0  0
    5.4616  -11.6473   22.0141 H   0  0  0  0  0  0  0  0  0  0  0  0
    5.4931  -13.1990   17.7032 H   0  0  0  0  0  0  0  0  0  0  0  0
    6.0879  -14.4753   18.7847 H   0  0  0  0  0  0  0  0  0  0  0  0
    4.5463  -14.7095   17.9496 H   0  0  0  0  0  0  0  0  0  0  0  0
  1  2  1  0
  2  3  1  0
  3  4  1  0
  4  5  2  0
  5  6  1  0
  6  7  2  0
  7  8  1  0
  8  9  2  0
  9 10  1  0
 10 11  2  0
 11 12  1  0
 12 13  2  0
  2 14  1  0
 14 15  1  0
 15 16  1  0
 15 17  1  0
 17 18  2  0
 18 19  1  0
 19 20  2  0
 20 21  1  0
 21 22  1  0
 13  4  1  0
 21 17  1  0
 12  7  1  0
  1 23  1  0
  1 24  1  0
  1 25  1  0
  3 26  1  0
  3 27  1  0
  5 28  1  0
  6 29  1  0
  9 30  1  0
 10 31  1  0
 11 32  1  0
 13 33  1  0
 14 34  1  0
 14 35  1  0
 15 36  1  0
 16 37  1  0
 18 38  1  0
 19 39  1  0
 22 40  1  0
 22 41  1  0
 22 42  1  0
M  END
>  <Energy>  (942) 
572.45080971102948

>  <compound_id>  (942) 
46871

>  <target_id>  (942) 
1

>  <reference_id>  (942) 
68

>  <inspiration_ids>  (942) 
[122, 68]

>  <energy_score>  (942) 
464.3596135655164

>  <distance_score>  (942) 
15.800841884389515

>  <path>  (942) 
/opt/xchem-fragalysis-2/maxwin/BulkDock/SCRATCH/511023/C46871-P68/C46871-P68.minimised.mol

>  <scratch_subdir>  (942) 
/opt/xchem-fragalysis-2/maxwin/BulkDock/SCRATCH/511023/C46871-P68

>  <fragmenstein_runtime>  (942) 
17.39581298828125

>  <fragmenstein_outcome>  (942) 
too moved

>  <fragmenstein_mode>  (942) 
expansion

>  <fragmenstein_error>  (942) 


$$$$
C46872-P122
     RDKit          3D

 48 50  0  0  0  0  0  0  0  0999 V2000
    0.8979  -18.4253   18.1494 C   0  0  0  0  0  0  0  0  0  0  0  0
   -0.0916  -17.6388   19.5056 C   0  0  0  0  0  0  0  0  0  0  0  0
    0.8097  -16.0951   19.4639 C   0  0  0  0  0  0  0  0  0  0  0  0
    2.0903  -14.7298   18.6662 N   0  0  0  0  0  0  0  0  0  0  0  0
    3.5926  -14.7677   18.4123 C   0  0  0  0  0  0  0  0  0  0  0  0
    4.3771  -15.6629   18.5284 O   0  0  0  0  0  0  0  0  0  0  0  0
    4.4199  -13.3109   18.0504 C   0  0  0  0  0  0  0  0  0  0  0  0
    4.3301  -12.0619   17.3386 C   0  0  0  0  0  0  0  0  0  0  0  0
    5.6258  -11.6038   17.1194 C   0  0  0  0  0  0  0  0  0  0  0  0
    6.4664  -12.1530   17.9790 N   0  0  0  0  0  0  0  0  0  0  0  0
    5.6111  -12.9160   18.7461 N   0  0  0  0  0  0  0  0  0  0  0  0
    5.9193  -13.0217   20.1501 C   0  0  0  0  0  0  0  0  0  0  0  0
   -1.9197  -17.9440   19.7556 N   0  0  0  0  0  0  0  0  0  0  0  0
   -2.4209  -16.6176   19.7036 C   0  0  0  0  0  0  0  0  0  0  0  0
   -3.2934  -18.8511   19.0642 C   0  0  0  0  0  0  0  0  0  0  0  0
   -4.5251  -20.0727   19.5228 C   0  0  0  0  0  0  0  0  0  0  0  0
   -4.6012  -21.4596   19.1490 C   0  0  0  0  0  0  0  0  0  0  0  0
   -5.6206  -22.4073   19.4638 C   0  0  0  0  0  0  0  0  0  0  0  0
   -6.6756  -22.0700   20.2437 C   0  0  0  0  0  0  0  0  0  0  0  0
   -7.5244  -23.0479   20.6191 N   0  0  0  0  0  0  0  0  0  0  0  0
   -8.5646  -22.6835   21.3797 C   0  0  0  0  0  0  0  0  0  0  0  0
   -8.7869  -21.3788   21.7716 C   0  0  0  0  0  0  0  0  0  0  0  0
   -7.8918  -20.3815   21.3558 C   0  0  0  0  0  0  0  0  0  0  0  0
   -6.7739  -20.7052   20.5729 C   0  0  0  0  0  0  0  0  0  0  0  0
   -5.7556  -19.7276   20.1429 C   0  0  0  0  0  0  0  0  0  0  0  0
    1.5224  -17.7929   17.5378 H   0  0  0  0  0  0  0  0  0  0  0  0
    0.2190  -18.9879   17.5217 H   0  0  0  0  0  0  0  0  0  0  0  0
    1.6300  -19.1867   18.4606 H   0  0  0  0  0  0  0  0  0  0  0  0
    0.1442  -17.7723   20.5834 H   0  0  0  0  0  0  0  0  0  0  0  0
   -0.1923  -15.6522   19.4836 H   0  0  0  0  0  0  0  0  0  0  0  0
    1.0118  -15.9550   20.5341 H   0  0  0  0  0  0  0  0  0  0  0  0
    1.7298  -13.8399   18.3842 H   0  0  0  0  0  0  0  0  0  0  0  0
    3.5165  -11.6122   16.7874 H   0  0  0  0  0  0  0  0  0  0  0  0
    5.8926  -10.9960   16.2763 H   0  0  0  0  0  0  0  0  0  0  0  0
    6.5624  -12.1811   20.4314 H   0  0  0  0  0  0  0  0  0  0  0  0
    5.0054  -12.9426   20.7385 H   0  0  0  0  0  0  0  0  0  0  0  0
    6.4603  -13.9446   20.3372 H   0  0  0  0  0  0  0  0  0  0  0  0
   -1.8297  -15.8098   20.0868 H   0  0  0  0  0  0  0  0  0  0  0  0
   -3.2602  -16.6147   20.3648 H   0  0  0  0  0  0  0  0  0  0  0  0
   -2.6291  -16.4575   18.6629 H   0  0  0  0  0  0  0  0  0  0  0  0
   -4.0420  -18.0704   19.2655 H   0  0  0  0  0  0  0  0  0  0  0  0
   -3.3141  -18.6959   17.9943 H   0  0  0  0  0  0  0  0  0  0  0  0
   -3.8418  -22.0207   18.6340 H   0  0  0  0  0  0  0  0  0  0  0  0
   -5.5014  -23.4436   19.1535 H   0  0  0  0  0  0  0  0  0  0  0  0
   -9.2461  -23.4735   21.6603 H   0  0  0  0  0  0  0  0  0  0  0  0
   -9.6450  -21.1259   22.3845 H   0  0  0  0  0  0  0  0  0  0  0  0
   -8.0527  -19.3522   21.6675 H   0  0  0  0  0  0  0  0  0  0  0  0
   -5.9322  -18.6854   20.4155 H   0  0  0  0  0  0  0  0  0  0  0  0
  1  2  1  0
  2  3  1  0
  3  4  1  0
  4  5  1  0
  5  6  2  0
  5  7  1  0
  7  8  2  0
  8  9  1  0
  9 10  2  0
 10 11  1  0
 11 12  1  0
  2 13  1  0
 13 14  1  0
 13 15  1  0
 15 16  1  0
 16 17  2  0
 17 18  1  0
 18 19  2  0
 19 20  1  0
 20 21  2  0
 21 22  1  0
 22 23  2  0
 23 24  1  0
 24 25  2  0
 11  7  1  0
 25 16  1  0
 24 19  1  0
  1 26  1  0
  1 27  1  0
  1 28  1  0
  2 29  1  0
  3 30  1  0
  3 31  1  0
  4 32  1  0
  8 33  1  0
  9 34  1  0
 12 35  1  0
 12 36  1  0
 12 37  1  0
 14 38  1  0
 14 39  1  0
 14 40  1  0
 15 41  1  0
 15 42  1  0
 17 43  1  0
 18 44  1  0
 21 45  1  0
 22 46  1  0
 23 47  1  0
 25 48  1  0
M  END
>  <Energy>  (943) 
496.22811051158084

>  <compound_id>  (943) 
46872

>  <target_id>  (943) 
1

>  <reference_id>  (943) 
122

>  <inspiration_ids>  (943) 
[122, 68]

>  <energy_score>  (943) 
434.08643531182645

>  <distance_score>  (943) 
15.276814971261766

>  <path>  (943) 
/opt/xchem-fragalysis-2/maxwin/BulkDock/SCRATCH/511023/C46872-P122/C46872-P122.minimised.mol

>  <scratch_subdir>  (943) 
/opt/xchem-fragalysis-2/maxwin/BulkDock/SCRATCH/511023/C46872-P122

>  <fragmenstein_runtime>  (943) 
25.19999670982361

>  <fragmenstein_outcome>  (943) 
too moved

>  <fragmenstein_mode>  (943) 
expansion

>  <fragmenstein_error>  (943) 


$$$$
C46872-P68
     RDKit          3D

 48 50  0  0  0  0  0  0  0  0999 V2000
    0.7100  -27.5506   17.4584 C   0  0  0  0  0  0  0  0  0  0  0  0
    0.3119  -27.0890   18.8606 C   0  0  0  0  0  0  0  0  0  0  0  0
    0.3051  -25.5256   19.0679 C   0  0  0  0  0  0  0  0  0  0  0  0
    1.2452  -24.5513   18.4358 N   0  0  0  0  0  0  0  0  0  0  0  0
    1.3101  -23.0965   18.5199 C   0  0  0  0  0  0  0  0  0  0  0  0
    0.6736  -22.3271   19.1806 O   0  0  0  0  0  0  0  0  0  0  0  0
    2.3070  -22.3722   17.6295 C   0  0  0  0  0  0  0  0  0  0  0  0
    2.2577  -20.9915   17.3480 C   0  0  0  0  0  0  0  0  0  0  0  0
    3.3600  -20.6624   16.5472 C   0  0  0  0  0  0  0  0  0  0  0  0
    4.1495  -21.7196   16.3737 N   0  0  0  0  0  0  0  0  0  0  0  0
    3.4835  -22.7349   16.9987 N   0  0  0  0  0  0  0  0  0  0  0  0
    4.0772  -24.0489   16.9247 C   0  0  0  0  0  0  0  0  0  0  0  0
   -0.9385  -27.8724   19.2632 N   0  0  0  0  0  0  0  0  0  0  0  0
   -1.0317  -28.0022   20.7164 C   0  0  0  0  0  0  0  0  0  0  0  0
   -2.2295  -27.3891   18.7134 C   0  0  0  0  0  0  0  0  0  0  0  0
   -3.2153  -28.4755   18.3074 C   0  0  0  0  0  0  0  0  0  0  0  0
   -4.4646  -28.5963   18.9094 C   0  0  0  0  0  0  0  0  0  0  0  0
   -5.3957  -29.5264   18.4198 C   0  0  0  0  0  0  0  0  0  0  0  0
   -5.1680  -30.3281   17.3059 C   0  0  0  0  0  0  0  0  0  0  0  0
   -6.1131  -31.1857   16.8514 N   0  0  0  0  0  0  0  0  0  0  0  0
   -5.7963  -31.9860   15.8139 C   0  0  0  0  0  0  0  0  0  0  0  0
   -4.5632  -31.9940   15.1980 C   0  0  0  0  0  0  0  0  0  0  0  0
   -3.6044  -31.0942   15.6487 C   0  0  0  0  0  0  0  0  0  0  0  0
   -3.8944  -30.2368   16.7200 C   0  0  0  0  0  0  0  0  0  0  0  0
   -2.9366  -29.3269   17.2272 C   0  0  0  0  0  0  0  0  0  0  0  0
    0.9286  -28.6255   17.4613 H   0  0  0  0  0  0  0  0  0  0  0  0
   -0.0841  -27.3949   16.7260 H   0  0  0  0  0  0  0  0  0  0  0  0
    1.6162  -27.0434   17.1143 H   0  0  0  0  0  0  0  0  0  0  0  0
    1.1308  -27.4562   19.4963 H   0  0  0  0  0  0  0  0  0  0  0  0
    0.4023  -25.3445   20.1440 H   0  0  0  0  0  0  0  0  0  0  0  0
   -0.6824  -25.1666   18.7724 H   0  0  0  0  0  0  0  0  0  0  0  0
    1.8712  -24.8664   17.7156 H   0  0  0  0  0  0  0  0  0  0  0  0
    1.4862  -20.3134   17.6779 H   0  0  0  0  0  0  0  0  0  0  0  0
    3.6183  -19.7075   16.1080 H   0  0  0  0  0  0  0  0  0  0  0  0
    5.1143  -23.9614   16.5885 H   0  0  0  0  0  0  0  0  0  0  0  0
    4.0645  -24.5144   17.9092 H   0  0  0  0  0  0  0  0  0  0  0  0
    3.5064  -24.6395   16.2040 H   0  0  0  0  0  0  0  0  0  0  0  0
   -1.1601  -27.0328   21.2102 H   0  0  0  0  0  0  0  0  0  0  0  0
   -0.1316  -28.4781   21.1206 H   0  0  0  0  0  0  0  0  0  0  0  0
   -1.8722  -28.6463   20.9980 H   0  0  0  0  0  0  0  0  0  0  0  0
   -2.7058  -26.6779   19.4017 H   0  0  0  0  0  0  0  0  0  0  0  0
   -2.0487  -26.8097   17.7986 H   0  0  0  0  0  0  0  0  0  0  0  0
   -4.7354  -27.9749   19.7571 H   0  0  0  0  0  0  0  0  0  0  0  0
   -6.3235  -29.6706   18.9524 H   0  0  0  0  0  0  0  0  0  0  0  0
   -6.5900  -32.6483   15.4839 H   0  0  0  0  0  0  0  0  0  0  0  0
   -4.3553  -32.6673   14.3756 H   0  0  0  0  0  0  0  0  0  0  0  0
   -2.6258  -31.0738   15.1780 H   0  0  0  0  0  0  0  0  0  0  0  0
   -1.9570  -29.2693   16.7571 H   0  0  0  0  0  0  0  0  0  0  0  0
  1  2  1  0
  2  3  1  0
  3  4  1  0
  4  5  1  0
  5  6  2  0
  5  7  1  0
  7  8  2  0
  8  9  1  0
  9 10  2  0
 10 11  1  0
 11 12  1  0
  2 13  1  0
 13 14  1  0
 13 15  1  0
 15 16  1  0
 16 17  2  0
 17 18  1  0
 18 19  2  0
 19 20  1  0
 20 21  2  0
 21 22  1  0
 22 23  2  0
 23 24  1  0
 24 25  2  0
 11  7  1  0
 25 16  1  0
 24 19  1  0
  1 26  1  0
  1 27  1  0
  1 28  1  0
  2 29  1  0
  3 30  1  0
  3 31  1  0
  4 32  1  0
  8 33  1  0
  9 34  1  0
 12 35  1  0
 12 36  1  0
 12 37  1  0
 14 38  1  0
 14 39  1  0
 14 40  1  0
 15 41  1  0
 15 42  1  0
 17 43  1  0
 18 44  1  0
 21 45  1  0
 22 46  1  0
 23 47  1  0
 25 48  1  0
M  END
>  <Energy>  (944) 
63.621084855692537

>  <compound_id>  (944) 
46872

>  <target_id>  (944) 
1

>  <reference_id>  (944) 
68

>  <inspiration_ids>  (944) 
[122, 68]

>  <energy_score>  (944) 
1.479409655935001

>  <distance_score>  (944) 
15.244138672682709

>  <path>  (944) 
/opt/xchem-fragalysis-2/maxwin/BulkDock/SCRATCH/511023/C46872-P68/C46872-P68.minimised.mol

>  <scratch_subdir>  (944) 
/opt/xchem-fragalysis-2/maxwin/BulkDock/SCRATCH/511023/C46872-P68

>  <fragmenstein_runtime>  (944) 
31.639870405197144

>  <fragmenstein_outcome>  (944) 
too moved

>  <fragmenstein_mode>  (944) 
expansion

>  <fragmenstein_error>  (944) 


$$$$
C46873-P122
     RDKit          3D

 41 43  0  0  0  0  0  0  0  0999 V2000
    7.7443  -10.6538   20.8642 C   0  0  0  0  0  0  0  0  0  0  0  0
    6.5340  -11.5060   20.5111 C   0  0  0  0  0  0  0  0  0  0  0  0
    6.7438  -12.9528   20.6370 N   0  0  0  0  0  0  0  0  0  0  0  0
    5.9452  -14.1422   19.6630 C   0  0  0  0  0  0  0  0  0  0  0  0
    6.8246  -15.8565   19.9113 C   0  0  0  0  0  0  0  0  0  0  0  0
    6.4948  -17.7465   20.1997 C   0  0  0  0  0  0  0  0  0  0  0  0
    5.6001  -18.8237   21.4389 N   0  0  0  0  0  0  0  0  0  0  0  0
    6.2402  -19.0224   22.7806 C   0  0  0  0  0  0  0  0  0  0  0  0
    5.2621  -20.4903   21.1585 C   0  0  0  0  0  0  0  0  0  0  0  0
    3.8865  -21.3226   21.4565 C   0  0  0  0  0  0  0  0  0  0  0  0
    3.0497  -21.1594   22.5638 C   0  0  0  0  0  0  0  0  0  0  0  0
    2.0069  -22.1035   22.8910 C   0  0  0  0  0  0  0  0  0  0  0  0
    1.7317  -23.2708   22.1670 C   0  0  0  0  0  0  0  0  0  0  0  0
    0.7634  -24.1556   22.5530 N   0  0  0  0  0  0  0  0  0  0  0  0
    0.5562  -25.2630   21.8015 C   0  0  0  0  0  0  0  0  0  0  0  0
    1.2812  -25.5427   20.6626 C   0  0  0  0  0  0  0  0  0  0  0  0
    2.2779  -24.6325   20.2828 C   0  0  0  0  0  0  0  0  0  0  0  0
    2.5349  -23.4656   21.0351 C   0  0  0  0  0  0  0  0  0  0  0  0
    3.5808  -22.5055   20.7053 C   0  0  0  0  0  0  0  0  0  0  0  0
    8.3911  -14.7613   20.2041 C   0  0  0  0  0  0  0  0  0  0  0  0
    8.3147  -13.4990   20.8358 N   0  0  0  0  0  0  0  0  0  0  0  0
    8.5856  -10.8454   20.1908 H   0  0  0  0  0  0  0  0  0  0  0  0
    7.4908   -9.5917   20.7848 H   0  0  0  0  0  0  0  0  0  0  0  0
    8.0767  -10.8464   21.8895 H   0  0  0  0  0  0  0  0  0  0  0  0
    6.2106  -11.3013   19.4956 H   0  0  0  0  0  0  0  0  0  0  0  0
    5.7185  -11.2186   21.1629 H   0  0  0  0  0  0  0  0  0  0  0  0
    4.9928  -13.7403   19.3388 H   0  0  0  0  0  0  0  0  0  0  0  0
    7.4124  -18.2893   19.9375 H   0  0  0  0  0  0  0  0  0  0  0  0
    5.8573  -17.7041   19.3705 H   0  0  0  0  0  0  0  0  0  0  0  0
    6.3404  -18.1523   23.4345 H   0  0  0  0  0  0  0  0  0  0  0  0
    7.2057  -19.5381   22.7000 H   0  0  0  0  0  0  0  0  0  0  0  0
    5.5897  -19.6550   23.4006 H   0  0  0  0  0  0  0  0  0  0  0  0
    5.7080  -20.7994   20.2210 H   0  0  0  0  0  0  0  0  0  0  0  0
    5.9563  -21.0264   21.8266 H   0  0  0  0  0  0  0  0  0  0  0  0
    3.2086  -20.3122   23.2280 H   0  0  0  0  0  0  0  0  0  0  0  0
    1.4084  -21.9102   23.7804 H   0  0  0  0  0  0  0  0  0  0  0  0
   -0.2310  -25.9233   22.1512 H   0  0  0  0  0  0  0  0  0  0  0  0
    1.0858  -26.4349   20.0796 H   0  0  0  0  0  0  0  0  0  0  0  0
    2.8627  -24.8361   19.3886 H   0  0  0  0  0  0  0  0  0  0  0  0
    4.2013  -22.7188   19.8336 H   0  0  0  0  0  0  0  0  0  0  0  0
    9.4117  -15.1493   20.0612 H   0  0  0  0  0  0  0  0  0  0  0  0
  1  2  1  0
  2  3  1  0
  3  4  1  0
  4  5  2  0
  5  6  1  0
  6  7  1  0
  7  8  1  0
  7  9  1  0
  9 10  1  0
 10 11  2  0
 11 12  1  0
 12 13  2  0
 13 14  1  0
 14 15  2  0
 15 16  1  0
 16 17  2  0
 17 18  1  0
 18 19  2  0
  5 20  1  0
 20 21  2  0
 21  3  1  0
 19 10  1  0
 18 13  1  0
  1 22  1  0
  1 23  1  0
  1 24  1  0
  2 25  1  0
  2 26  1  0
  4 27  1  0
  6 28  1  0
  6 29  1  0
  8 30  1  0
  8 31  1  0
  8 32  1  0
  9 33  1  0
  9 34  1  0
 11 35  1  0
 12 36  1  0
 15 37  1  0
 16 38  1  0
 17 39  1  0
 19 40  1  0
 20 41  1  0
M  END
>  <Energy>  (945) 
482.4304331333949

>  <compound_id>  (945) 
46873

>  <target_id>  (945) 
1

>  <reference_id>  (945) 
122

>  <inspiration_ids>  (945) 
[122, 68]

>  <energy_score>  (945) 
411.82662723951296

>  <distance_score>  (945) 
17.405703914131227

>  <path>  (945) 
/opt/xchem-fragalysis-2/maxwin/BulkDock/SCRATCH/511023/C46873-P122/C46873-P122.minimised.mol

>  <scratch_subdir>  (945) 
/opt/xchem-fragalysis-2/maxwin/BulkDock/SCRATCH/511023/C46873-P122

>  <fragmenstein_runtime>  (945) 
10.640089750289917

>  <fragmenstein_outcome>  (945) 
too moved

>  <fragmenstein_mode>  (945) 
expansion

>  <fragmenstein_error>  (945) 


$$$$
C46873-P68
     RDKit          3D

 41 43  0  0  0  0  0  0  0  0999 V2000
    2.7082  -21.5772   23.9141 C   0  0  0  0  0  0  0  0  0  0  0  0
    2.6695  -21.4355   22.4008 C   0  0  0  0  0  0  0  0  0  0  0  0
    1.3448  -21.6583   21.8596 N   0  0  0  0  0  0  0  0  0  0  0  0
    0.7414  -22.8845   21.7624 C   0  0  0  0  0  0  0  0  0  0  0  0
   -0.6172  -22.6794   21.5964 C   0  0  0  0  0  0  0  0  0  0  0  0
   -1.7935  -23.7066   21.5267 C   0  0  0  0  0  0  0  0  0  0  0  0
   -1.7515  -24.8995   22.4616 N   0  0  0  0  0  0  0  0  0  0  0  0
   -1.6995  -24.4418   23.8540 C   0  0  0  0  0  0  0  0  0  0  0  0
   -2.9220  -25.8359   22.2764 C   0  0  0  0  0  0  0  0  0  0  0  0
   -2.7601  -27.2329   22.9063 C   0  0  0  0  0  0  0  0  0  0  0  0
   -2.0551  -28.2355   22.2307 C   0  0  0  0  0  0  0  0  0  0  0  0
   -1.8683  -29.5087   22.8020 C   0  0  0  0  0  0  0  0  0  0  0  0
   -2.3678  -29.8435   24.0548 C   0  0  0  0  0  0  0  0  0  0  0  0
   -2.1776  -31.0906   24.5475 N   0  0  0  0  0  0  0  0  0  0  0  0
   -2.7141  -31.3958   25.7442 C   0  0  0  0  0  0  0  0  0  0  0  0
   -3.4049  -30.4848   26.5141 C   0  0  0  0  0  0  0  0  0  0  0  0
   -3.5723  -29.1913   26.0188 C   0  0  0  0  0  0  0  0  0  0  0  0
   -3.0871  -28.8524   24.7478 C   0  0  0  0  0  0  0  0  0  0  0  0
   -3.2831  -27.5672   24.1701 C   0  0  0  0  0  0  0  0  0  0  0  0
   -0.6757  -21.2534   21.4460 C   0  0  0  0  0  0  0  0  0  0  0  0
    0.5026  -20.6380   21.6074 N   0  0  0  0  0  0  0  0  0  0  0  0
    2.4223  -22.5869   24.2270 H   0  0  0  0  0  0  0  0  0  0  0  0
    2.0207  -20.8719   24.3931 H   0  0  0  0  0  0  0  0  0  0  0  0
    3.7176  -21.3783   24.2874 H   0  0  0  0  0  0  0  0  0  0  0  0
    2.9764  -20.4295   22.1292 H   0  0  0  0  0  0  0  0  0  0  0  0
    3.3446  -22.1569   21.9303 H   0  0  0  0  0  0  0  0  0  0  0  0
    1.3003  -23.7983   21.9111 H   0  0  0  0  0  0  0  0  0  0  0  0
   -2.7307  -23.1577   21.6869 H   0  0  0  0  0  0  0  0  0  0  0  0
   -1.8035  -24.0857   20.4970 H   0  0  0  0  0  0  0  0  0  0  0  0
   -0.8274  -23.8067   24.0382 H   0  0  0  0  0  0  0  0  0  0  0  0
   -1.5912  -25.2848   24.5437 H   0  0  0  0  0  0  0  0  0  0  0  0
   -2.5976  -23.8794   24.1336 H   0  0  0  0  0  0  0  0  0  0  0  0
   -3.8456  -25.3710   22.6462 H   0  0  0  0  0  0  0  0  0  0  0  0
   -3.0742  -25.9923   21.2002 H   0  0  0  0  0  0  0  0  0  0  0  0
   -1.6241  -28.0335   21.2514 H   0  0  0  0  0  0  0  0  0  0  0  0
   -1.3202  -30.2638   22.2402 H   0  0  0  0  0  0  0  0  0  0  0  0
   -2.5487  -32.4134   26.0833 H   0  0  0  0  0  0  0  0  0  0  0  0
   -3.7905  -30.7652   27.4871 H   0  0  0  0  0  0  0  0  0  0  0  0
   -4.0999  -28.4531   26.6183 H   0  0  0  0  0  0  0  0  0  0  0  0
   -3.8266  -26.8118   24.7339 H   0  0  0  0  0  0  0  0  0  0  0  0
   -1.5543  -20.6529   21.2500 H   0  0  0  0  0  0  0  0  0  0  0  0
  1  2  1  0
  2  3  1  0
  3  4  1  0
  4  5  2  0
  5  6  1  0
  6  7  1  0
  7  8  1  0
  7  9  1  0
  9 10  1  0
 10 11  2  0
 11 12  1  0
 12 13  2  0
 13 14  1  0
 14 15  2  0
 15 16  1  0
 16 17  2  0
 17 18  1  0
 18 19  2  0
  5 20  1  0
 20 21  2  0
 21  3  1  0
 19 10  1  0
 18 13  1  0
  1 22  1  0
  1 23  1  0
  1 24  1  0
  2 25  1  0
  2 26  1  0
  4 27  1  0
  6 28  1  0
  6 29  1  0
  8 30  1  0
  8 31  1  0
  8 32  1  0
  9 33  1  0
  9 34  1  0
 11 35  1  0
 12 36  1  0
 15 37  1  0
 16 38  1  0
 17 39  1  0
 19 40  1  0
 20 41  1  0
M  END
>  <Energy>  (946) 
53.802246645277137

>  <compound_id>  (946) 
46873

>  <target_id>  (946) 
1

>  <reference_id>  (946) 
68

>  <inspiration_ids>  (946) 
[122, 68]

>  <energy_score>  (946) 
-16.801559248615945

>  <distance_score>  (946) 
16.002497137697905

>  <path>  (946) 
/opt/xchem-fragalysis-2/maxwin/BulkDock/SCRATCH/511023/C46873-P68/C46873-P68.minimised.mol

>  <scratch_subdir>  (946) 
/opt/xchem-fragalysis-2/maxwin/BulkDock/SCRATCH/511023/C46873-P68

>  <fragmenstein_runtime>  (946) 
27.224193334579468

>  <fragmenstein_outcome>  (946) 
too moved

>  <fragmenstein_mode>  (946) 
expansion

>  <fragmenstein_error>  (946) 


$$$$
C46874-P122
     RDKit          3D

 38 40  0  0  0  0  0  0  0  0999 V2000
   -1.2655  -16.1129   19.7881 C   0  0  0  0  0  0  0  0  0  0  0  0
    0.4816  -16.3161   19.7726 N   0  0  0  0  0  0  0  0  0  0  0  0
    0.0700  -18.1254   19.5721 C   0  0  0  0  0  0  0  0  0  0  0  0
   -1.1216  -19.2491   19.7965 C   0  0  0  0  0  0  0  0  0  0  0  0
   -2.3634  -19.3318   19.1666 C   0  0  0  0  0  0  0  0  0  0  0  0
   -3.2102  -20.4953   19.2958 C   0  0  0  0  0  0  0  0  0  0  0  0
   -2.8846  -21.6520   20.0199 C   0  0  0  0  0  0  0  0  0  0  0  0
   -3.7181  -22.7310   20.0713 N   0  0  0  0  0  0  0  0  0  0  0  0
   -3.3339  -23.8270   20.7675 C   0  0  0  0  0  0  0  0  0  0  0  0
   -2.1276  -23.9032   21.4301 C   0  0  0  0  0  0  0  0  0  0  0  0
   -1.2808  -22.7860   21.3773 C   0  0  0  0  0  0  0  0  0  0  0  0
   -1.6425  -21.6226   20.6623 C   0  0  0  0  0  0  0  0  0  0  0  0
   -0.7985  -20.4452   20.5424 C   0  0  0  0  0  0  0  0  0  0  0  0
    1.8491  -15.2561   18.6571 C   0  0  0  0  0  0  0  0  0  0  0  0
    1.6405  -13.4449   18.2101 C   0  0  0  0  0  0  0  0  0  0  0  0
   -0.2248  -12.8376   17.9317 C   0  0  0  0  0  0  0  0  0  0  0  0
   -0.4921  -11.0982   17.9488 N   0  0  0  0  0  0  0  0  0  0  0  0
    1.4348  -10.1405   17.8671 N   0  0  0  0  0  0  0  0  0  0  0  0
    1.7633   -8.7431   18.1780 C   0  0  0  0  0  0  0  0  0  0  0  0
    2.7415  -11.7295   18.0744 C   0  0  0  0  0  0  0  0  0  0  0  0
   -1.5723  -16.8936   20.4624 H   0  0  0  0  0  0  0  0  0  0  0  0
   -1.7251  -15.1655   20.0457 H   0  0  0  0  0  0  0  0  0  0  0  0
   -1.8423  -16.4175   18.8978 H   0  0  0  0  0  0  0  0  0  0  0  0
    0.3051  -18.2637   20.6347 H   0  0  0  0  0  0  0  0  0  0  0  0
    0.7149  -18.5073   18.7737 H   0  0  0  0  0  0  0  0  0  0  0  0
   -2.7177  -18.5131   18.5480 H   0  0  0  0  0  0  0  0  0  0  0  0
   -4.1693  -20.4856   18.7781 H   0  0  0  0  0  0  0  0  0  0  0  0
   -4.0475  -24.6461   20.7741 H   0  0  0  0  0  0  0  0  0  0  0  0
   -1.8470  -24.7932   21.9801 H   0  0  0  0  0  0  0  0  0  0  0  0
   -0.3239  -22.8217   21.8944 H   0  0  0  0  0  0  0  0  0  0  0  0
    0.1781  -20.4809   21.0360 H   0  0  0  0  0  0  0  0  0  0  0  0
    2.4620  -14.9327   19.5067 H   0  0  0  0  0  0  0  0  0  0  0  0
    2.5774  -15.6983   17.9836 H   0  0  0  0  0  0  0  0  0  0  0  0
   -1.1283  -13.4292   17.7739 H   0  0  0  0  0  0  0  0  0  0  0  0
    2.8039   -8.5784   17.8946 H   0  0  0  0  0  0  0  0  0  0  0  0
    1.0997   -8.1170   17.5787 H   0  0  0  0  0  0  0  0  0  0  0  0
    1.6116   -8.5557   19.2410 H   0  0  0  0  0  0  0  0  0  0  0  0
    3.3879  -11.4965   17.2093 H   0  0  0  0  0  0  0  0  0  0  0  0
  1  2  1  0
  2  3  1  0
  3  4  1  0
  4  5  2  0
  5  6  1  0
  6  7  2  0
  7  8  1  0
  8  9  2  0
  9 10  1  0
 10 11  2  0
 11 12  1  0
 12 13  2  0
  2 14  1  0
 14 15  1  0
 15 16  1  0
 16 17  2  0
 17 18  1  0
 18 19  1  0
 18 20  1  0
 13  4  1  0
 20 15  2  0
 12  7  1  0
  1 21  1  0
  1 22  1  0
  1 23  1  0
  3 24  1  0
  3 25  1  0
  5 26  1  0
  6 27  1  0
  9 28  1  0
 10 29  1  0
 11 30  1  0
 13 31  1  0
 14 32  1  0
 14 33  1  0
 16 34  1  0
 19 35  1  0
 19 36  1  0
 19 37  1  0
 20 38  1  0
M  END
>  <Energy>  (947) 
1058.1173207177969

>  <compound_id>  (947) 
46874

>  <target_id>  (947) 
1

>  <reference_id>  (947) 
122

>  <inspiration_ids>  (947) 
[122, 68]

>  <energy_score>  (947) 
984.099960207725

>  <distance_score>  (947) 
16.81260846533931

>  <path>  (947) 
/opt/xchem-fragalysis-2/maxwin/BulkDock/SCRATCH/511023/C46874-P122/C46874-P122.minimised.mol

>  <scratch_subdir>  (947) 
/opt/xchem-fragalysis-2/maxwin/BulkDock/SCRATCH/511023/C46874-P122

>  <fragmenstein_runtime>  (947) 
12.036447048187256

>  <fragmenstein_outcome>  (947) 
too moved

>  <fragmenstein_mode>  (947) 
expansion

>  <fragmenstein_error>  (947) 


$$$$
C46874-P68
     RDKit          3D

 38 40  0  0  0  0  0  0  0  0999 V2000
   -7.1007  -20.0799   17.5717 C   0  0  0  0  0  0  0  0  0  0  0  0
   -6.5791  -20.4984   18.8758 N   0  0  0  0  0  0  0  0  0  0  0  0
   -6.7460  -21.9926   19.0614 C   0  0  0  0  0  0  0  0  0  0  0  0
   -8.1253  -22.6219   18.7981 C   0  0  0  0  0  0  0  0  0  0  0  0
   -9.1325  -22.6493   19.7677 C   0  0  0  0  0  0  0  0  0  0  0  0
  -10.3385  -23.3503   19.5408 C   0  0  0  0  0  0  0  0  0  0  0  0
  -10.5800  -24.0699   18.3743 C   0  0  0  0  0  0  0  0  0  0  0  0
  -11.6671  -24.8641   18.2690 N   0  0  0  0  0  0  0  0  0  0  0  0
  -11.7792  -25.6629   17.1861 C   0  0  0  0  0  0  0  0  0  0  0  0
  -10.8925  -25.6411   16.1267 C   0  0  0  0  0  0  0  0  0  0  0  0
   -9.8101  -24.7649   16.1994 C   0  0  0  0  0  0  0  0  0  0  0  0
   -9.6017  -23.9990   17.3611 C   0  0  0  0  0  0  0  0  0  0  0  0
   -8.3994  -23.2743   17.5788 C   0  0  0  0  0  0  0  0  0  0  0  0
   -5.1111  -20.1000   18.9854 C   0  0  0  0  0  0  0  0  0  0  0  0
   -4.7078  -18.5971   18.8261 C   0  0  0  0  0  0  0  0  0  0  0  0
   -4.3227  -17.8994   17.6392 C   0  0  0  0  0  0  0  0  0  0  0  0
   -3.9907  -16.6185   17.8416 N   0  0  0  0  0  0  0  0  0  0  0  0
   -4.0797  -16.4803   19.1697 N   0  0  0  0  0  0  0  0  0  0  0  0
   -3.8453  -15.1927   19.7705 C   0  0  0  0  0  0  0  0  0  0  0  0
   -4.4758  -17.6300   19.8000 C   0  0  0  0  0  0  0  0  0  0  0  0
   -7.0226  -18.9954   17.4450 H   0  0  0  0  0  0  0  0  0  0  0  0
   -8.1704  -20.2963   17.4842 H   0  0  0  0  0  0  0  0  0  0  0  0
   -6.5757  -20.5660   16.7417 H   0  0  0  0  0  0  0  0  0  0  0  0
   -6.4673  -22.2340   20.0954 H   0  0  0  0  0  0  0  0  0  0  0  0
   -6.0175  -22.5134   18.4248 H   0  0  0  0  0  0  0  0  0  0  0  0
   -8.9810  -22.1555   20.7245 H   0  0  0  0  0  0  0  0  0  0  0  0
  -11.0888  -23.3928   20.3260 H   0  0  0  0  0  0  0  0  0  0  0  0
  -12.6389  -26.3252   17.1918 H   0  0  0  0  0  0  0  0  0  0  0  0
  -11.0352  -26.2865   15.2687 H   0  0  0  0  0  0  0  0  0  0  0  0
   -9.0838  -24.7490   15.3914 H   0  0  0  0  0  0  0  0  0  0  0  0
   -7.6359  -23.2789   16.8023 H   0  0  0  0  0  0  0  0  0  0  0  0
   -4.7618  -20.4110   19.9786 H   0  0  0  0  0  0  0  0  0  0  0  0
   -4.5289  -20.6684   18.2473 H   0  0  0  0  0  0  0  0  0  0  0  0
   -4.2953  -18.2874   16.6289 H   0  0  0  0  0  0  0  0  0  0  0  0
   -2.7681  -15.0478   19.8499 H   0  0  0  0  0  0  0  0  0  0  0  0
   -4.2888  -14.4192   19.1380 H   0  0  0  0  0  0  0  0  0  0  0  0
   -4.3090  -15.1648   20.7591 H   0  0  0  0  0  0  0  0  0  0  0  0
   -4.5721  -17.6732   20.8761 H   0  0  0  0  0  0  0  0  0  0  0  0
  1  2  1  0
  2  3  1  0
  3  4  1  0
  4  5  2  0
  5  6  1  0
  6  7  2  0
  7  8  1  0
  8  9  2  0
  9 10  1  0
 10 11  2  0
 11 12  1  0
 12 13  2  0
  2 14  1  0
 14 15  1  0
 15 16  1  0
 16 17  2  0
 17 18  1  0
 18 19  1  0
 18 20  1  0
 13  4  1  0
 20 15  2  0
 12  7  1  0
  1 21  1  0
  1 22  1  0
  1 23  1  0
  3 24  1  0
  3 25  1  0
  5 26  1  0
  6 27  1  0
  9 28  1  0
 10 29  1  0
 11 30  1  0
 13 31  1  0
 14 32  1  0
 14 33  1  0
 16 34  1  0
 19 35  1  0
 19 36  1  0
 19 37  1  0
 20 38  1  0
M  END
>  <Energy>  (948) 
59.792109330598272

>  <compound_id>  (948) 
46874

>  <target_id>  (948) 
1

>  <reference_id>  (948) 
68

>  <inspiration_ids>  (948) 
[122, 68]

>  <energy_score>  (948) 
-14.22525117947157

>  <distance_score>  (948) 
17.063153427261348

>  <path>  (948) 
/opt/xchem-fragalysis-2/maxwin/BulkDock/SCRATCH/511023/C46874-P68/C46874-P68.minimised.mol

>  <scratch_subdir>  (948) 
/opt/xchem-fragalysis-2/maxwin/BulkDock/SCRATCH/511023/C46874-P68

>  <fragmenstein_runtime>  (948) 
21.107786417007446

>  <fragmenstein_outcome>  (948) 
too moved

>  <fragmenstein_mode>  (948) 
expansion

>  <fragmenstein_error>  (948) 


$$$$
C46875-P122
     RDKit          3D

 40 42  0  0  0  0  0  0  0  0999 V2000
   12.7790  -12.1259   22.9862 C   0  0  0  0  0  0  0  0  0  0  0  0
   12.7942  -10.9318   23.1169 C   0  0  0  0  0  0  0  0  0  0  0  0
   12.8186   -9.4701   23.2787 C   0  0  0  0  0  0  0  0  0  0  0  0
   12.1019   -8.7704   22.2139 N   0  0  0  0  0  0  0  0  0  0  0  0
   10.7696   -8.8776   21.8998 C   0  0  0  0  0  0  0  0  0  0  0  0
   10.1908   -8.3414   20.4835 C   0  0  0  0  0  0  0  0  0  0  0  0
    8.6330   -9.3502   19.3254 C   0  0  0  0  0  0  0  0  0  0  0  0
    7.2398  -10.8251   19.8228 N   0  0  0  0  0  0  0  0  0  0  0  0
    7.2152  -11.4363   21.2334 C   0  0  0  0  0  0  0  0  0  0  0  0
    5.6534  -12.0005   19.5804 C   0  0  0  0  0  0  0  0  0  0  0  0
    4.5278  -13.4902   19.0093 C   0  0  0  0  0  0  0  0  0  0  0  0
    3.4612  -13.2676   18.2702 C   0  0  0  0  0  0  0  0  0  0  0  0
    2.1880  -14.2912   17.8217 C   0  0  0  0  0  0  0  0  0  0  0  0
    2.5579  -15.4273   17.0821 C   0  0  0  0  0  0  0  0  0  0  0  0
    2.5821  -16.7392   16.1260 N   0  0  0  0  0  0  0  0  0  0  0  0
    2.2921  -18.2860   16.2788 C   0  0  0  0  0  0  0  0  0  0  0  0
    1.6396  -18.7079   17.3113 C   0  0  0  0  0  0  0  0  0  0  0  0
    1.7295  -17.5148   18.0312 C   0  0  0  0  0  0  0  0  0  0  0  0
    2.7412  -15.8737   18.1719 C   0  0  0  0  0  0  0  0  0  0  0  0
    4.2495  -14.9438   18.4501 C   0  0  0  0  0  0  0  0  0  0  0  0
   11.5979   -7.3321   20.8922 C   0  0  0  0  0  0  0  0  0  0  0  0
   12.5534   -7.6386   21.7693 N   0  0  0  0  0  0  0  0  0  0  0  0
   12.7712  -13.1849   22.8622 H   0  0  0  0  0  0  0  0  0  0  0  0
   13.8525   -9.1070   23.2740 H   0  0  0  0  0  0  0  0  0  0  0  0
   12.3516   -9.1678   24.2224 H   0  0  0  0  0  0  0  0  0  0  0  0
   10.2632   -9.3941   22.7004 H   0  0  0  0  0  0  0  0  0  0  0  0
    8.0049   -8.5100   19.4496 H   0  0  0  0  0  0  0  0  0  0  0  0
    8.9809   -9.9394   18.4844 H   0  0  0  0  0  0  0  0  0  0  0  0
    6.2512  -11.1477   21.6422 H   0  0  0  0  0  0  0  0  0  0  0  0
    7.4252  -12.4810   21.0677 H   0  0  0  0  0  0  0  0  0  0  0  0
    7.9397  -11.3326   22.0539 H   0  0  0  0  0  0  0  0  0  0  0  0
    5.9319  -11.9797   18.6062 H   0  0  0  0  0  0  0  0  0  0  0  0
    6.0001  -12.7954   20.2191 H   0  0  0  0  0  0  0  0  0  0  0  0
    3.4011  -12.2334   17.9076 H   0  0  0  0  0  0  0  0  0  0  0  0
    1.2291  -13.9206   17.4590 H   0  0  0  0  0  0  0  0  0  0  0  0
    2.6348  -18.9192   15.4651 H   0  0  0  0  0  0  0  0  0  0  0  0
    1.1577  -19.6298   17.5383 H   0  0  0  0  0  0  0  0  0  0  0  0
    0.9296  -17.6340   18.8032 H   0  0  0  0  0  0  0  0  0  0  0  0
    4.9818  -15.6990   18.7659 H   0  0  0  0  0  0  0  0  0  0  0  0
   11.8451   -6.3436   20.4472 H   0  0  0  0  0  0  0  0  0  0  0  0
  1  2  3  0
  2  3  1  0
  3  4  1  0
  4  5  1  0
  5  6  2  0
  6  7  1  0
  7  8  1  0
  8  9  1  0
  8 10  1  0
 10 11  1  0
 11 12  2  0
 12 13  1  0
 13 14  2  0
 14 15  1  0
 15 16  2  0
 16 17  1  0
 17 18  2  0
 18 19  1  0
 19 20  2  0
  6 21  1  0
 21 22  2  0
 22  4  1  0
 20 11  1  0
 19 14  1  0
  1 23  1  0
  3 24  1  0
  3 25  1  0
  5 26  1  0
  7 27  1  0
  7 28  1  0
  9 29  1  0
  9 30  1  0
  9 31  1  0
 10 32  1  0
 10 33  1  0
 12 34  1  0
 13 35  1  0
 16 36  1  0
 17 37  1  0
 18 38  1  0
 20 39  1  0
 21 40  1  0
M  END
>  <Energy>  (949) 
1258.1206889472487

>  <compound_id>  (949) 
46875

>  <target_id>  (949) 
1

>  <reference_id>  (949) 
122

>  <inspiration_ids>  (949) 
[122, 68]

>  <energy_score>  (949) 
1162.2664150480612

>  <distance_score>  (949) 
21.672692384144003

>  <path>  (949) 
/opt/xchem-fragalysis-2/maxwin/BulkDock/SCRATCH/511023/C46875-P122/C46875-P122.minimised.mol

>  <scratch_subdir>  (949) 
/opt/xchem-fragalysis-2/maxwin/BulkDock/SCRATCH/511023/C46875-P122

>  <fragmenstein_runtime>  (949) 
13.264187097549438

>  <fragmenstein_outcome>  (949) 
too moved

>  <fragmenstein_mode>  (949) 
expansion

>  <fragmenstein_error>  (949) 


$$$$
C46875-P68
     RDKit          3D

 40 42  0  0  0  0  0  0  0  0999 V2000
    8.9659   -9.1075   19.1757 C   0  0  0  0  0  0  0  0  0  0  0  0
    8.6735  -10.1511   18.7281 C   0  0  0  0  0  0  0  0  0  0  0  0
    8.2653  -10.8167   17.6509 C   0  0  0  0  0  0  0  0  0  0  0  0
    6.5969  -11.9299   17.6586 N   0  0  0  0  0  0  0  0  0  0  0  0
    5.7007  -13.3400   18.7288 C   0  0  0  0  0  0  0  0  0  0  0  0
    5.1322  -14.5389   17.3078 C   0  0  0  0  0  0  0  0  0  0  0  0
    4.2845  -16.2134   16.9704 C   0  0  0  0  0  0  0  0  0  0  0  0
    3.1759  -17.0643   17.5893 N   0  0  0  0  0  0  0  0  0  0  0  0
    2.2218  -16.0815   18.0371 C   0  0  0  0  0  0  0  0  0  0  0  0
    2.7733  -18.5460   16.8749 C   0  0  0  0  0  0  0  0  0  0  0  0
    1.9480  -19.9582   17.4468 C   0  0  0  0  0  0  0  0  0  0  0  0
    2.6669  -21.1757   17.4885 C   0  0  0  0  0  0  0  0  0  0  0  0
    2.1235  -22.4545   17.8836 C   0  0  0  0  0  0  0  0  0  0  0  0
    0.7922  -22.6678   18.2090 C   0  0  0  0  0  0  0  0  0  0  0  0
    0.3371  -23.9053   18.5767 N   0  0  0  0  0  0  0  0  0  0  0  0
   -0.9817  -24.0606   18.8146 C   0  0  0  0  0  0  0  0  0  0  0  0
   -1.8818  -23.0226   18.6990 C   0  0  0  0  0  0  0  0  0  0  0  0
   -1.3926  -21.7564   18.3291 C   0  0  0  0  0  0  0  0  0  0  0  0
   -0.0202  -21.5334   18.0769 C   0  0  0  0  0  0  0  0  0  0  0  0
    0.5606  -20.2271   17.6739 C   0  0  0  0  0  0  0  0  0  0  0  0
    6.8869  -14.6937   15.9788 C   0  0  0  0  0  0  0  0  0  0  0  0
    7.5296  -12.9073   15.9531 N   0  0  0  0  0  0  0  0  0  0  0  0
    9.4826   -8.3068   19.6972 H   0  0  0  0  0  0  0  0  0  0  0  0
    8.2678  -10.1808   16.7390 H   0  0  0  0  0  0  0  0  0  0  0  0
    9.0346  -11.5581   17.3199 H   0  0  0  0  0  0  0  0  0  0  0  0
    5.0698  -12.8632   19.4682 H   0  0  0  0  0  0  0  0  0  0  0  0
    3.8782  -16.0519   15.9883 H   0  0  0  0  0  0  0  0  0  0  0  0
    5.0952  -16.9180   16.7495 H   0  0  0  0  0  0  0  0  0  0  0  0
    2.6074  -15.5667   18.9193 H   0  0  0  0  0  0  0  0  0  0  0  0
    1.2779  -16.5120   18.3649 H   0  0  0  0  0  0  0  0  0  0  0  0
    2.1175  -15.2565   17.3348 H   0  0  0  0  0  0  0  0  0  0  0  0
    3.7822  -18.9541   16.7382 H   0  0  0  0  0  0  0  0  0  0  0  0
    2.5003  -18.3731   15.8295 H   0  0  0  0  0  0  0  0  0  0  0  0
    3.7190  -21.1669   17.2116 H   0  0  0  0  0  0  0  0  0  0  0  0
    2.8021  -23.3045   17.9212 H   0  0  0  0  0  0  0  0  0  0  0  0
   -1.2947  -25.0601   19.0973 H   0  0  0  0  0  0  0  0  0  0  0  0
   -2.9378  -23.1767   18.8882 H   0  0  0  0  0  0  0  0  0  0  0  0
   -2.0951  -20.9312   18.2351 H   0  0  0  0  0  0  0  0  0  0  0  0
   -0.1842  -19.4563   17.5070 H   0  0  0  0  0  0  0  0  0  0  0  0
    7.2196  -15.4794   15.2637 H   0  0  0  0  0  0  0  0  0  0  0  0
  1  2  3  0
  2  3  1  0
  3  4  1  0
  4  5  1  0
  5  6  2  0
  6  7  1  0
  7  8  1  0
  8  9  1  0
  8 10  1  0
 10 11  1  0
 11 12  2  0
 12 13  1  0
 13 14  2  0
 14 15  1  0
 15 16  2  0
 16 17  1  0
 17 18  2  0
 18 19  1  0
 19 20  2  0
  6 21  1  0
 21 22  2  0
 22  4  1  0
 20 11  1  0
 19 14  1  0
  1 23  1  0
  3 24  1  0
  3 25  1  0
  5 26  1  0
  7 27  1  0
  7 28  1  0
  9 29  1  0
  9 30  1  0
  9 31  1  0
 10 32  1  0
 10 33  1  0
 12 34  1  0
 13 35  1  0
 16 36  1  0
 17 37  1  0
 18 38  1  0
 20 39  1  0
 21 40  1  0
M  END
>  <Energy>  (950) 
1120.6377956227573

>  <compound_id>  (950) 
46875

>  <target_id>  (950) 
1

>  <reference_id>  (950) 
68

>  <inspiration_ids>  (950) 
[122, 68]

>  <energy_score>  (950) 
1024.783521723558

>  <distance_score>  (950) 
17.56185919227195

>  <path>  (950) 
/opt/xchem-fragalysis-2/maxwin/BulkDock/SCRATCH/511023/C46875-P68/C46875-P68.minimised.mol

>  <scratch_subdir>  (950) 
/opt/xchem-fragalysis-2/maxwin/BulkDock/SCRATCH/511023/C46875-P68

>  <fragmenstein_runtime>  (950) 
20.017545461654663

>  <fragmenstein_outcome>  (950) 
too moved

>  <fragmenstein_mode>  (950) 
expansion

>  <fragmenstein_error>  (950) 


$$$$
C46877-P122
     RDKit          3D

 39 41  0  0  0  0  0  0  0  0999 V2000
    2.6433  -24.1029   15.3204 C   0  0  0  0  0  0  0  0  0  0  0  0
    2.2794  -23.1278   16.5218 C   0  0  0  0  0  0  0  0  0  0  0  0
    2.6066  -21.7246   16.2023 C   0  0  0  0  0  0  0  0  0  0  0  0
    3.1496  -21.1466   15.0009 C   0  0  0  0  0  0  0  0  0  0  0  0
    3.4800  -19.8662   15.1829 N   0  0  0  0  0  0  0  0  0  0  0  0
    2.8589  -19.6577   16.3522 N   0  0  0  0  0  0  0  0  0  0  0  0
    1.8134  -18.7268   16.4847 C   0  0  0  0  0  0  0  0  0  0  0  0
    2.7702  -20.7459   17.1297 C   0  0  0  0  0  0  0  0  0  0  0  0
    1.4400  -23.6054   17.8946 N   0  0  0  0  0  0  0  0  0  0  0  0
    2.4820  -24.8777   18.1623 C   0  0  0  0  0  0  0  0  0  0  0  0
   -0.4040  -23.7132   18.5838 C   0  0  0  0  0  0  0  0  0  0  0  0
   -1.7027  -25.2895   19.3891 C   0  0  0  0  0  0  0  0  0  0  0  0
   -1.1917  -26.5613   20.2738 C   0  0  0  0  0  0  0  0  0  0  0  0
   -1.9935  -27.5411   20.7186 C   0  0  0  0  0  0  0  0  0  0  0  0
   -3.3514  -27.4935   20.5109 N   0  0  0  0  0  0  0  0  0  0  0  0
   -4.2696  -28.3993   20.9295 N   0  0  0  0  0  0  0  0  0  0  0  0
   -5.4425  -27.8892   20.5636 C   0  0  0  0  0  0  0  0  0  0  0  0
   -5.3000  -26.6653   19.8893 C   0  0  0  0  0  0  0  0  0  0  0  0
   -3.9396  -26.4204   19.8594 C   0  0  0  0  0  0  0  0  0  0  0  0
   -3.1141  -25.3433   19.3475 C   0  0  0  0  0  0  0  0  0  0  0  0
    2.4621  -25.1594   15.5234 H   0  0  0  0  0  0  0  0  0  0  0  0
    2.1238  -23.8539   14.3944 H   0  0  0  0  0  0  0  0  0  0  0  0
    3.7162  -24.0313   15.0919 H   0  0  0  0  0  0  0  0  0  0  0  0
    3.2787  -23.2205   16.9701 H   0  0  0  0  0  0  0  0  0  0  0  0
    3.3335  -21.6085   14.0398 H   0  0  0  0  0  0  0  0  0  0  0  0
    1.1758  -18.9517   15.6465 H   0  0  0  0  0  0  0  0  0  0  0  0
    1.2918  -18.8703   17.4302 H   0  0  0  0  0  0  0  0  0  0  0  0
    2.1768  -17.7192   16.4560 H   0  0  0  0  0  0  0  0  0  0  0  0
    2.5389  -20.7120   18.1842 H   0  0  0  0  0  0  0  0  0  0  0  0
    3.5407  -24.6624   17.9799 H   0  0  0  0  0  0  0  0  0  0  0  0
    2.4436  -25.2365   19.2012 H   0  0  0  0  0  0  0  0  0  0  0  0
    2.3300  -25.6847   17.4314 H   0  0  0  0  0  0  0  0  0  0  0  0
   -0.7611  -23.1375   17.8169 H   0  0  0  0  0  0  0  0  0  0  0  0
    0.3515  -23.4004   19.4446 H   0  0  0  0  0  0  0  0  0  0  0  0
   -0.1450  -26.6464   20.5702 H   0  0  0  0  0  0  0  0  0  0  0  0
   -1.6365  -28.3833   21.2970 H   0  0  0  0  0  0  0  0  0  0  0  0
   -6.3464  -28.4301   20.8069 H   0  0  0  0  0  0  0  0  0  0  0  0
   -6.0793  -26.0358   19.4854 H   0  0  0  0  0  0  0  0  0  0  0  0
   -3.6802  -24.5012   18.9812 H   0  0  0  0  0  0  0  0  0  0  0  0
  1  2  1  0
  2  3  1  0
  3  4  1  0
  4  5  2  0
  5  6  1  0
  6  7  1  0
  6  8  1  0
  2  9  1  0
  9 10  1  0
  9 11  1  0
 11 12  1  0
 12 13  1  0
 13 14  2  0
 14 15  1  0
 15 16  1  0
 16 17  2  0
 17 18  1  0
 18 19  2  0
 19 20  1  0
  8  3  2  0
 20 12  2  0
 19 15  1  0
  1 21  1  0
  1 22  1  0
  1 23  1  0
  2 24  1  0
  4 25  1  0
  7 26  1  0
  7 27  1  0
  7 28  1  0
  8 29  1  0
 10 30  1  0
 10 31  1  0
 10 32  1  0
 11 33  1  0
 11 34  1  0
 13 35  1  0
 14 36  1  0
 17 37  1  0
 18 38  1  0
 20 39  1  0
M  END
>  <Energy>  (951) 
433.3845120326605

>  <compound_id>  (951) 
46877

>  <target_id>  (951) 
1

>  <reference_id>  (951) 
122

>  <inspiration_ids>  (951) 
[122, 68]

>  <energy_score>  (951) 
347.4274125371659

>  <distance_score>  (951) 
15.92756540991276

>  <path>  (951) 
/opt/xchem-fragalysis-2/maxwin/BulkDock/SCRATCH/511023/C46877-P122/C46877-P122.minimised.mol

>  <scratch_subdir>  (951) 
/opt/xchem-fragalysis-2/maxwin/BulkDock/SCRATCH/511023/C46877-P122

>  <fragmenstein_runtime>  (951) 
10.300723314285278

>  <fragmenstein_outcome>  (951) 
too moved

>  <fragmenstein_mode>  (951) 
expansion

>  <fragmenstein_error>  (951) 


$$$$
C46877-P68
     RDKit          3D

 39 41  0  0  0  0  0  0  0  0999 V2000
    4.7305  -24.6181   16.4743 C   0  0  0  0  0  0  0  0  0  0  0  0
    3.4763  -23.7207   16.5730 C   0  0  0  0  0  0  0  0  0  0  0  0
    3.9263  -22.1863   16.4406 C   0  0  0  0  0  0  0  0  0  0  0  0
    5.2364  -21.6694   16.1131 C   0  0  0  0  0  0  0  0  0  0  0  0
    5.2846  -20.3558   15.8472 N   0  0  0  0  0  0  0  0  0  0  0  0
    3.9894  -19.9953   15.9512 N   0  0  0  0  0  0  0  0  0  0  0  0
    3.5524  -18.6826   15.5459 C   0  0  0  0  0  0  0  0  0  0  0  0
    3.1681  -21.0278   16.3356 C   0  0  0  0  0  0  0  0  0  0  0  0
    2.6048  -24.1872   17.7360 N   0  0  0  0  0  0  0  0  0  0  0  0
    1.5187  -23.2923   18.0593 C   0  0  0  0  0  0  0  0  0  0  0  0
    2.3134  -25.6672   17.8153 C   0  0  0  0  0  0  0  0  0  0  0  0
    1.1170  -26.4750   18.5485 C   0  0  0  0  0  0  0  0  0  0  0  0
    0.4513  -27.5270   17.7342 C   0  0  0  0  0  0  0  0  0  0  0  0
   -0.4584  -28.3694   18.2595 C   0  0  0  0  0  0  0  0  0  0  0  0
   -0.7953  -28.2894   19.6032 N   0  0  0  0  0  0  0  0  0  0  0  0
   -1.6893  -29.0600   20.2780 N   0  0  0  0  0  0  0  0  0  0  0  0
   -1.6197  -28.6389   21.5389 C   0  0  0  0  0  0  0  0  0  0  0  0
   -0.7020  -27.5877   21.7019 C   0  0  0  0  0  0  0  0  0  0  0  0
   -0.1857  -27.3528   20.4428 C   0  0  0  0  0  0  0  0  0  0  0  0
    0.7964  -26.4481   19.8722 C   0  0  0  0  0  0  0  0  0  0  0  0
    4.4838  -25.6786   16.3706 H   0  0  0  0  0  0  0  0  0  0  0  0
    5.3258  -24.3699   15.5886 H   0  0  0  0  0  0  0  0  0  0  0  0
    5.3685  -24.4996   17.3576 H   0  0  0  0  0  0  0  0  0  0  0  0
    2.8897  -23.8926   15.6598 H   0  0  0  0  0  0  0  0  0  0  0  0
    6.1569  -22.2313   16.0307 H   0  0  0  0  0  0  0  0  0  0  0  0
    4.3321  -18.2088   14.9443 H   0  0  0  0  0  0  0  0  0  0  0  0
    2.6467  -18.8040   14.9506 H   0  0  0  0  0  0  0  0  0  0  0  0
    3.3548  -18.0932   16.4434 H   0  0  0  0  0  0  0  0  0  0  0  0
    2.1038  -20.8654   16.4151 H   0  0  0  0  0  0  0  0  0  0  0  0
    0.9094  -23.0380   17.1927 H   0  0  0  0  0  0  0  0  0  0  0  0
    0.8623  -23.7037   18.8285 H   0  0  0  0  0  0  0  0  0  0  0  0
    1.9040  -22.3583   18.4817 H   0  0  0  0  0  0  0  0  0  0  0  0
    2.3167  -26.0417   16.7849 H   0  0  0  0  0  0  0  0  0  0  0  0
    3.2142  -26.1058   18.2687 H   0  0  0  0  0  0  0  0  0  0  0  0
    0.7344  -27.6274   16.6911 H   0  0  0  0  0  0  0  0  0  0  0  0
   -0.9559  -29.1427   17.6898 H   0  0  0  0  0  0  0  0  0  0  0  0
   -2.2311  -29.1173   22.2920 H   0  0  0  0  0  0  0  0  0  0  0  0
   -0.4470  -27.0779   22.6181 H   0  0  0  0  0  0  0  0  0  0  0  0
    1.3276  -25.7661   20.5295 H   0  0  0  0  0  0  0  0  0  0  0  0
  1  2  1  0
  2  3  1  0
  3  4  1  0
  4  5  2  0
  5  6  1  0
  6  7  1  0
  6  8  1  0
  2  9  1  0
  9 10  1  0
  9 11  1  0
 11 12  1  0
 12 13  1  0
 13 14  2  0
 14 15  1  0
 15 16  1  0
 16 17  2  0
 17 18  1  0
 18 19  2  0
 19 20  1  0
  8  3  2  0
 20 12  2  0
 19 15  1  0
  1 21  1  0
  1 22  1  0
  1 23  1  0
  2 24  1  0
  4 25  1  0
  7 26  1  0
  7 27  1  0
  7 28  1  0
  8 29  1  0
 10 30  1  0
 10 31  1  0
 10 32  1  0
 11 33  1  0
 11 34  1  0
 13 35  1  0
 14 36  1  0
 17 37  1  0
 18 38  1  0
 20 39  1  0
M  END
>  <Energy>  (952) 
75.174718684052692

>  <compound_id>  (952) 
46877

>  <target_id>  (952) 
1

>  <reference_id>  (952) 
68

>  <inspiration_ids>  (952) 
[122, 68]

>  <energy_score>  (952) 
-10.782380811442351

>  <distance_score>  (952) 
16.35335829082867

>  <path>  (952) 
/opt/xchem-fragalysis-2/maxwin/BulkDock/SCRATCH/511023/C46877-P68/C46877-P68.minimised.mol

>  <scratch_subdir>  (952) 
/opt/xchem-fragalysis-2/maxwin/BulkDock/SCRATCH/511023/C46877-P68

>  <fragmenstein_runtime>  (952) 
23.16879940032959

>  <fragmenstein_outcome>  (952) 
too moved

>  <fragmenstein_mode>  (952) 
expansion

>  <fragmenstein_error>  (952) 


$$$$
C46878-P122
     RDKit          3D

 41 43  0  0  0  0  0  0  0  0999 V2000
   -2.6261  -23.7103   20.1953 C   0  0  0  0  0  0  0  0  0  0  0  0
   -1.8097  -24.2951   21.3661 C   0  0  0  0  0  0  0  0  0  0  0  0
   -0.3494  -23.6481   21.3199 C   0  0  0  0  0  0  0  0  0  0  0  0
    0.6921  -23.7739   20.3440 C   0  0  0  0  0  0  0  0  0  0  0  0
    1.7240  -22.9384   20.5168 N   0  0  0  0  0  0  0  0  0  0  0  0
    1.4055  -22.2819   21.6434 N   0  0  0  0  0  0  0  0  0  0  0  0
    2.3686  -21.4015   22.2559 C   0  0  0  0  0  0  0  0  0  0  0  0
    0.1673  -22.6308   22.1275 C   0  0  0  0  0  0  0  0  0  0  0  0
   -1.9923  -25.8167   21.5538 N   0  0  0  0  0  0  0  0  0  0  0  0
   -1.2062  -26.5824   20.5901 C   0  0  0  0  0  0  0  0  0  0  0  0
   -3.4471  -26.2440   21.4929 C   0  0  0  0  0  0  0  0  0  0  0  0
   -3.8646  -27.6897   21.8251 C   0  0  0  0  0  0  0  0  0  0  0  0
   -4.1405  -28.0951   23.1343 C   0  0  0  0  0  0  0  0  0  0  0  0
   -4.7322  -29.3483   23.3987 C   0  0  0  0  0  0  0  0  0  0  0  0
   -5.0525  -30.2477   22.3909 C   0  0  0  0  0  0  0  0  0  0  0  0
   -5.6588  -31.4080   22.6898 N   0  0  0  0  0  0  0  0  0  0  0  0
   -5.9146  -32.2754   21.6872 C   0  0  0  0  0  0  0  0  0  0  0  0
   -5.5895  -32.0373   20.3686 C   0  0  0  0  0  0  0  0  0  0  0  0
   -4.9933  -30.8182   20.0588 C   0  0  0  0  0  0  0  0  0  0  0  0
   -4.7201  -29.8888   21.0745 C   0  0  0  0  0  0  0  0  0  0  0  0
   -4.1461  -28.6196   20.8049 C   0  0  0  0  0  0  0  0  0  0  0  0
   -2.5168  -22.6208   20.1563 H   0  0  0  0  0  0  0  0  0  0  0  0
   -3.6984  -23.8964   20.3033 H   0  0  0  0  0  0  0  0  0  0  0  0
   -2.2961  -24.1139   19.2326 H   0  0  0  0  0  0  0  0  0  0  0  0
   -2.2468  -23.8710   22.2824 H   0  0  0  0  0  0  0  0  0  0  0  0
    0.7073  -24.4275   19.4815 H   0  0  0  0  0  0  0  0  0  0  0  0
    2.6148  -20.6060   21.5505 H   0  0  0  0  0  0  0  0  0  0  0  0
    1.9471  -20.9975   23.1778 H   0  0  0  0  0  0  0  0  0  0  0  0
    3.2524  -21.9960   22.4966 H   0  0  0  0  0  0  0  0  0  0  0  0
   -0.2405  -22.1436   23.0020 H   0  0  0  0  0  0  0  0  0  0  0  0
   -1.3191  -27.6591   20.7550 H   0  0  0  0  0  0  0  0  0  0  0  0
   -1.4862  -26.3652   19.5541 H   0  0  0  0  0  0  0  0  0  0  0  0
   -0.1372  -26.3905   20.7164 H   0  0  0  0  0  0  0  0  0  0  0  0
   -3.8407  -26.0354   20.4898 H   0  0  0  0  0  0  0  0  0  0  0  0
   -4.0101  -25.5963   22.1784 H   0  0  0  0  0  0  0  0  0  0  0  0
   -3.9469  -27.4204   23.9655 H   0  0  0  0  0  0  0  0  0  0  0  0
   -4.9771  -29.6178   24.4237 H   0  0  0  0  0  0  0  0  0  0  0  0
   -6.3979  -33.1971   21.9927 H   0  0  0  0  0  0  0  0  0  0  0  0
   -5.8202  -32.7621   19.5993 H   0  0  0  0  0  0  0  0  0  0  0  0
   -4.7602  -30.5896   19.0234 H   0  0  0  0  0  0  0  0  0  0  0  0
   -3.9475  -28.3437   19.7707 H   0  0  0  0  0  0  0  0  0  0  0  0
  1  2  1  0
  2  3  1  0
  3  4  1  0
  4  5  2  0
  5  6  1  0
  6  7  1  0
  6  8  1  0
  2  9  1  0
  9 10  1  0
  9 11  1  0
 11 12  1  0
 12 13  2  0
 13 14  1  0
 14 15  2  0
 15 16  1  0
 16 17  2  0
 17 18  1  0
 18 19  2  0
 19 20  1  0
 20 21  2  0
  8  3  2  0
 21 12  1  0
 20 15  1  0
  1 22  1  0
  1 23  1  0
  1 24  1  0
  2 25  1  0
  4 26  1  0
  7 27  1  0
  7 28  1  0
  7 29  1  0
  8 30  1  0
 10 31  1  0
 10 32  1  0
 10 33  1  0
 11 34  1  0
 11 35  1  0
 13 36  1  0
 14 37  1  0
 17 38  1  0
 18 39  1  0
 19 40  1  0
 21 41  1  0
M  END
>  <Energy>  (953) 
67.797765168071052

>  <compound_id>  (953) 
46878

>  <target_id>  (953) 
1

>  <reference_id>  (953) 
122

>  <inspiration_ids>  (953) 
[122, 68]

>  <energy_score>  (953) 
-16.11716603797879

>  <distance_score>  (953) 
15.757552325853364

>  <path>  (953) 
/opt/xchem-fragalysis-2/maxwin/BulkDock/SCRATCH/511023/C46878-P122/C46878-P122.minimised.mol

>  <scratch_subdir>  (953) 
/opt/xchem-fragalysis-2/maxwin/BulkDock/SCRATCH/511023/C46878-P122

>  <fragmenstein_runtime>  (953) 
18.671391487121582

>  <fragmenstein_outcome>  (953) 
too moved

>  <fragmenstein_mode>  (953) 
expansion

>  <fragmenstein_error>  (953) 


$$$$
C46878-P68
     RDKit          3D

 41 43  0  0  0  0  0  0  0  0999 V2000
   -3.7306  -22.5922   20.4654 C   0  0  0  0  0  0  0  0  0  0  0  0
   -2.5634  -23.0792   21.3498 C   0  0  0  0  0  0  0  0  0  0  0  0
   -1.2374  -22.3550   20.8675 C   0  0  0  0  0  0  0  0  0  0  0  0
   -0.4569  -21.3671   21.5612 C   0  0  0  0  0  0  0  0  0  0  0  0
    0.5382  -20.8455   20.8312 N   0  0  0  0  0  0  0  0  0  0  0  0
    0.4516  -21.5152   19.6685 N   0  0  0  0  0  0  0  0  0  0  0  0
    1.4588  -21.3867   18.6440 C   0  0  0  0  0  0  0  0  0  0  0  0
   -0.6346  -22.3468   19.6153 C   0  0  0  0  0  0  0  0  0  0  0  0
   -2.5503  -24.6060   21.5681 N   0  0  0  0  0  0  0  0  0  0  0  0
   -2.1357  -25.3133   20.3538 C   0  0  0  0  0  0  0  0  0  0  0  0
   -3.8881  -25.1424   22.0396 C   0  0  0  0  0  0  0  0  0  0  0  0
   -3.9780  -26.4460   22.8614 C   0  0  0  0  0  0  0  0  0  0  0  0
   -5.2174  -26.7810   23.4390 C   0  0  0  0  0  0  0  0  0  0  0  0
   -5.3696  -27.9025   24.2763 C   0  0  0  0  0  0  0  0  0  0  0  0
   -4.3141  -28.7575   24.5617 C   0  0  0  0  0  0  0  0  0  0  0  0
   -4.4966  -29.8196   25.3774 N   0  0  0  0  0  0  0  0  0  0  0  0
   -3.4625  -30.6646   25.5732 C   0  0  0  0  0  0  0  0  0  0  0  0
   -2.2203  -30.4887   24.9988 C   0  0  0  0  0  0  0  0  0  0  0  0
   -2.0235  -29.3687   24.1921 C   0  0  0  0  0  0  0  0  0  0  0  0
   -3.0776  -28.4735   23.9507 C   0  0  0  0  0  0  0  0  0  0  0  0
   -2.9195  -27.3227   23.1246 C   0  0  0  0  0  0  0  0  0  0  0  0
   -4.7036  -22.8889   20.8678 H   0  0  0  0  0  0  0  0  0  0  0  0
   -3.7346  -21.4973   20.4046 H   0  0  0  0  0  0  0  0  0  0  0  0
   -3.6524  -22.9723   19.4417 H   0  0  0  0  0  0  0  0  0  0  0  0
   -2.7378  -22.6648   22.3536 H   0  0  0  0  0  0  0  0  0  0  0  0
   -0.6011  -21.0089   22.5724 H   0  0  0  0  0  0  0  0  0  0  0  0
    2.3607  -21.8893   18.9931 H   0  0  0  0  0  0  0  0  0  0  0  0
    1.1065  -21.8745   17.7313 H   0  0  0  0  0  0  0  0  0  0  0  0
    1.6294  -20.3292   18.4416 H   0  0  0  0  0  0  0  0  0  0  0  0
   -0.8708  -22.8958   18.7142 H   0  0  0  0  0  0  0  0  0  0  0  0
   -1.0978  -25.0776   20.1017 H   0  0  0  0  0  0  0  0  0  0  0  0
   -2.7704  -25.0818   19.4926 H   0  0  0  0  0  0  0  0  0  0  0  0
   -2.1628  -26.3986   20.4942 H   0  0  0  0  0  0  0  0  0  0  0  0
   -4.5691  -25.2376   21.1835 H   0  0  0  0  0  0  0  0  0  0  0  0
   -4.3081  -24.3776   22.7072 H   0  0  0  0  0  0  0  0  0  0  0  0
   -6.0777  -26.1360   23.2790 H   0  0  0  0  0  0  0  0  0  0  0  0
   -6.3406  -28.1051   24.7180 H   0  0  0  0  0  0  0  0  0  0  0  0
   -3.6711  -31.5099   26.2216 H   0  0  0  0  0  0  0  0  0  0  0  0
   -1.4161  -31.1918   25.1817 H   0  0  0  0  0  0  0  0  0  0  0  0
   -1.0486  -29.2040   23.7394 H   0  0  0  0  0  0  0  0  0  0  0  0
   -1.9368  -27.1064   22.7086 H   0  0  0  0  0  0  0  0  0  0  0  0
  1  2  1  0
  2  3  1  0
  3  4  1  0
  4  5  2  0
  5  6  1  0
  6  7  1  0
  6  8  1  0
  2  9  1  0
  9 10  1  0
  9 11  1  0
 11 12  1  0
 12 13  2  0
 13 14  1  0
 14 15  2  0
 15 16  1  0
 16 17  2  0
 17 18  1  0
 18 19  2  0
 19 20  1  0
 20 21  2  0
  8  3  2  0
 21 12  1  0
 20 15  1  0
  1 22  1  0
  1 23  1  0
  1 24  1  0
  2 25  1  0
  4 26  1  0
  7 27  1  0
  7 28  1  0
  7 29  1  0
  8 30  1  0
 10 31  1  0
 10 32  1  0
 10 33  1  0
 11 34  1  0
 11 35  1  0
 13 36  1  0
 14 37  1  0
 17 38  1  0
 18 39  1  0
 19 40  1  0
 21 41  1  0
M  END
>  <Energy>  (954) 
64.632595443341813

>  <compound_id>  (954) 
46878

>  <target_id>  (954) 
1

>  <reference_id>  (954) 
68

>  <inspiration_ids>  (954) 
[122, 68]

>  <energy_score>  (954) 
-19.282335762704975

>  <distance_score>  (954) 
15.85017572248814

>  <path>  (954) 
/opt/xchem-fragalysis-2/maxwin/BulkDock/SCRATCH/511023/C46878-P68/C46878-P68.minimised.mol

>  <scratch_subdir>  (954) 
/opt/xchem-fragalysis-2/maxwin/BulkDock/SCRATCH/511023/C46878-P68

>  <fragmenstein_runtime>  (954) 
16.00014019012451

>  <fragmenstein_outcome>  (954) 
too moved

>  <fragmenstein_mode>  (954) 
expansion

>  <fragmenstein_error>  (954) 


$$$$
C46879-P122
     RDKit          3D

 38 40  0  0  0  0  0  0  0  0999 V2000
   -1.7277  -25.3493   19.9588 C   0  0  0  0  0  0  0  0  0  0  0  0
   -1.2030  -25.9562   18.7310 N   0  0  0  0  0  0  0  0  0  0  0  0
   -2.2378  -26.9537   18.1878 C   0  0  0  0  0  0  0  0  0  0  0  0
   -2.4188  -28.3532   18.8328 C   0  0  0  0  0  0  0  0  0  0  0  0
   -1.5142  -28.9257   19.7267 C   0  0  0  0  0  0  0  0  0  0  0  0
   -1.7397  -30.2095   20.2853 C   0  0  0  0  0  0  0  0  0  0  0  0
   -2.8610  -30.9817   19.9960 C   0  0  0  0  0  0  0  0  0  0  0  0
   -3.0517  -32.1619   20.6259 N   0  0  0  0  0  0  0  0  0  0  0  0
   -4.2039  -32.8271   20.3905 C   0  0  0  0  0  0  0  0  0  0  0  0
   -5.1625  -32.3949   19.4952 C   0  0  0  0  0  0  0  0  0  0  0  0
   -4.9338  -31.1984   18.8153 C   0  0  0  0  0  0  0  0  0  0  0  0
   -3.7735  -30.4491   19.0666 C   0  0  0  0  0  0  0  0  0  0  0  0
   -3.5311  -29.1644   18.4790 C   0  0  0  0  0  0  0  0  0  0  0  0
   -0.9491  -24.8353   17.6943 C   0  0  0  0  0  0  0  0  0  0  0  0
    0.1366  -23.6669   17.8818 C   0  0  0  0  0  0  0  0  0  0  0  0
    1.1981  -23.4618   18.8162 C   0  0  0  0  0  0  0  0  0  0  0  0
    1.8481  -22.2992   18.4412 C   0  0  0  0  0  0  0  0  0  0  0  0
    1.1785  -21.8473   17.3487 N   0  0  0  0  0  0  0  0  0  0  0  0
    1.4547  -20.6551   16.5880 C   0  0  0  0  0  0  0  0  0  0  0  0
    0.1640  -22.6586   16.9704 N   0  0  0  0  0  0  0  0  0  0  0  0
   -1.9315  -26.1136   20.7160 H   0  0  0  0  0  0  0  0  0  0  0  0
   -2.6528  -24.7887   19.7823 H   0  0  0  0  0  0  0  0  0  0  0  0
   -0.9936  -24.6693   20.4018 H   0  0  0  0  0  0  0  0  0  0  0  0
   -1.9458  -27.1716   17.1520 H   0  0  0  0  0  0  0  0  0  0  0  0
   -3.2173  -26.4587   18.1507 H   0  0  0  0  0  0  0  0  0  0  0  0
   -0.6180  -28.3783   20.0146 H   0  0  0  0  0  0  0  0  0  0  0  0
   -1.0156  -30.6031   20.9963 H   0  0  0  0  0  0  0  0  0  0  0  0
   -4.3408  -33.7343   20.9715 H   0  0  0  0  0  0  0  0  0  0  0  0
   -6.0821  -32.9488   19.3547 H   0  0  0  0  0  0  0  0  0  0  0  0
   -5.6961  -30.8178   18.1413 H   0  0  0  0  0  0  0  0  0  0  0  0
   -4.2677  -28.7664   17.7815 H   0  0  0  0  0  0  0  0  0  0  0  0
   -0.6345  -25.3390   16.7701 H   0  0  0  0  0  0  0  0  0  0  0  0
   -1.9062  -24.3373   17.4861 H   0  0  0  0  0  0  0  0  0  0  0  0
    1.4514  -24.0968   19.6531 H   0  0  0  0  0  0  0  0  0  0  0  0
    2.6853  -21.7662   18.8721 H   0  0  0  0  0  0  0  0  0  0  0  0
    2.1524  -20.0255   17.1410 H   0  0  0  0  0  0  0  0  0  0  0  0
    0.5181  -20.1162   16.4248 H   0  0  0  0  0  0  0  0  0  0  0  0
    1.8942  -20.9535   15.6331 H   0  0  0  0  0  0  0  0  0  0  0  0
  1  2  1  0
  2  3  1  0
  3  4  1  0
  4  5  2  0
  5  6  1  0
  6  7  2  0
  7  8  1  0
  8  9  2  0
  9 10  1  0
 10 11  2  0
 11 12  1  0
 12 13  2  0
  2 14  1  0
 14 15  1  0
 15 16  1  0
 16 17  2  0
 17 18  1  0
 18 19  1  0
 18 20  1  0
 13  4  1  0
 20 15  2  0
 12  7  1  0
  1 21  1  0
  1 22  1  0
  1 23  1  0
  3 24  1  0
  3 25  1  0
  5 26  1  0
  6 27  1  0
  9 28  1  0
 10 29  1  0
 11 30  1  0
 13 31  1  0
 14 32  1  0
 14 33  1  0
 16 34  1  0
 17 35  1  0
 19 36  1  0
 19 37  1  0
 19 38  1  0
M  END
>  <Energy>  (955) 
84.020098044786792

>  <compound_id>  (955) 
46879

>  <target_id>  (955) 
1

>  <reference_id>  (955) 
122

>  <inspiration_ids>  (955) 
[122, 68]

>  <energy_score>  (955) 
-9.759556757087012

>  <distance_score>  (955) 
15.702362066284053

>  <path>  (955) 
/opt/xchem-fragalysis-2/maxwin/BulkDock/SCRATCH/511023/C46879-P122/C46879-P122.minimised.mol

>  <scratch_subdir>  (955) 
/opt/xchem-fragalysis-2/maxwin/BulkDock/SCRATCH/511023/C46879-P122

>  <fragmenstein_runtime>  (955) 
13.614953994750977

>  <fragmenstein_outcome>  (955) 
too moved

>  <fragmenstein_mode>  (955) 
expansion

>  <fragmenstein_error>  (955) 


$$$$
C46879-P68
     RDKit          3D

 38 40  0  0  0  0  0  0  0  0999 V2000
   -1.9669  -24.9102   17.8894 C   0  0  0  0  0  0  0  0  0  0  0  0
   -2.3988  -24.5712   19.2478 N   0  0  0  0  0  0  0  0  0  0  0  0
   -3.7395  -25.1724   19.5779 C   0  0  0  0  0  0  0  0  0  0  0  0
   -3.9538  -26.6485   19.2163 C   0  0  0  0  0  0  0  0  0  0  0  0
   -3.2868  -27.6898   19.8648 C   0  0  0  0  0  0  0  0  0  0  0  0
   -3.4445  -29.0222   19.4330 C   0  0  0  0  0  0  0  0  0  0  0  0
   -4.2739  -29.3694   18.3728 C   0  0  0  0  0  0  0  0  0  0  0  0
   -4.3824  -30.6498   17.9702 N   0  0  0  0  0  0  0  0  0  0  0  0
   -5.1246  -30.9318   16.8832 C   0  0  0  0  0  0  0  0  0  0  0  0
   -5.7820  -29.9757   16.1471 C   0  0  0  0  0  0  0  0  0  0  0  0
   -5.6800  -28.6527   16.5655 C   0  0  0  0  0  0  0  0  0  0  0  0
   -4.9350  -28.3290   17.7078 C   0  0  0  0  0  0  0  0  0  0  0  0
   -4.7949  -26.9953   18.1470 C   0  0  0  0  0  0  0  0  0  0  0  0
   -2.4103  -23.0512   19.3847 C   0  0  0  0  0  0  0  0  0  0  0  0
   -1.0285  -22.3078   19.4125 C   0  0  0  0  0  0  0  0  0  0  0  0
   -0.3265  -21.5691   18.4003 C   0  0  0  0  0  0  0  0  0  0  0  0
    0.8595  -21.1604   18.9824 C   0  0  0  0  0  0  0  0  0  0  0  0
    0.7977  -21.5983   20.2750 N   0  0  0  0  0  0  0  0  0  0  0  0
    1.8425  -21.6710   21.2675 C   0  0  0  0  0  0  0  0  0  0  0  0
   -0.3654  -22.2031   20.5721 N   0  0  0  0  0  0  0  0  0  0  0  0
   -1.8201  -25.9890   17.7742 H   0  0  0  0  0  0  0  0  0  0  0  0
   -2.6849  -24.5723   17.1336 H   0  0  0  0  0  0  0  0  0  0  0  0
   -0.9936  -24.4631   17.6612 H   0  0  0  0  0  0  0  0  0  0  0  0
   -3.9041  -25.0701   20.6580 H   0  0  0  0  0  0  0  0  0  0  0  0
   -4.5251  -24.5802   19.0895 H   0  0  0  0  0  0  0  0  0  0  0  0
   -2.6003  -27.4705   20.6804 H   0  0  0  0  0  0  0  0  0  0  0  0
   -2.8800  -29.8110   19.9272 H   0  0  0  0  0  0  0  0  0  0  0  0
   -5.1565  -31.9760   16.5961 H   0  0  0  0  0  0  0  0  0  0  0  0
   -6.3703  -30.2421   15.2785 H   0  0  0  0  0  0  0  0  0  0  0  0
   -6.2068  -27.8802   16.0125 H   0  0  0  0  0  0  0  0  0  0  0  0
   -5.3061  -26.2049   17.6000 H   0  0  0  0  0  0  0  0  0  0  0  0
   -3.0217  -22.6105   18.5863 H   0  0  0  0  0  0  0  0  0  0  0  0
   -2.9039  -22.8070   20.3352 H   0  0  0  0  0  0  0  0  0  0  0  0
   -0.6260  -21.4229   17.3728 H   0  0  0  0  0  0  0  0  0  0  0  0
    1.7307  -20.6612   18.5863 H   0  0  0  0  0  0  0  0  0  0  0  0
    2.1475  -20.6695   21.5528 H   0  0  0  0  0  0  0  0  0  0  0  0
    1.4633  -22.1835   22.1574 H   0  0  0  0  0  0  0  0  0  0  0  0
    2.6655  -22.2564   20.8545 H   0  0  0  0  0  0  0  0  0  0  0  0
  1  2  1  0
  2  3  1  0
  3  4  1  0
  4  5  2  0
  5  6  1  0
  6  7  2  0
  7  8  1  0
  8  9  2  0
  9 10  1  0
 10 11  2  0
 11 12  1  0
 12 13  2  0
  2 14  1  0
 14 15  1  0
 15 16  1  0
 16 17  2  0
 17 18  1  0
 18 19  1  0
 18 20  1  0
 13  4  1  0
 20 15  2  0
 12  7  1  0
  1 21  1  0
  1 22  1  0
  1 23  1  0
  3 24  1  0
  3 25  1  0
  5 26  1  0
  6 27  1  0
  9 28  1  0
 10 29  1  0
 11 30  1  0
 13 31  1  0
 14 32  1  0
 14 33  1  0
 16 34  1  0
 17 35  1  0
 19 36  1  0
 19 37  1  0
 19 38  1  0
M  END
>  <Energy>  (956) 
78.769639388204723

>  <compound_id>  (956) 
46879

>  <target_id>  (956) 
1

>  <reference_id>  (956) 
68

>  <inspiration_ids>  (956) 
[122, 68]

>  <energy_score>  (956) 
-15.010015413667475

>  <distance_score>  (956) 
15.822489485466667

>  <path>  (956) 
/opt/xchem-fragalysis-2/maxwin/BulkDock/SCRATCH/511023/C46879-P68/C46879-P68.minimised.mol

>  <scratch_subdir>  (956) 
/opt/xchem-fragalysis-2/maxwin/BulkDock/SCRATCH/511023/C46879-P68

>  <fragmenstein_runtime>  (956) 
21.931886434555054

>  <fragmenstein_outcome>  (956) 
too moved

>  <fragmenstein_mode>  (956) 
expansion

>  <fragmenstein_error>  (956) 


$$$$
C46880-P122
     RDKit          3D

 39 41  0  0  0  0  0  0  0  0999 V2000
    2.0082  -15.0428   18.5330 C   0  0  0  0  0  0  0  0  0  0  0  0
    0.7491  -16.1823   19.5869 C   0  0  0  0  0  0  0  0  0  0  0  0
   -0.8957  -16.6971   19.9018 N   0  0  0  0  0  0  0  0  0  0  0  0
   -0.6169  -17.3140   21.0109 C   0  0  0  0  0  0  0  0  0  0  0  0
   -1.5414  -18.2639   20.9884 C   0  0  0  0  0  0  0  0  0  0  0  0
   -2.4406  -18.7947   19.8265 C   0  0  0  0  0  0  0  0  0  0  0  0
   -3.5121  -20.5003   19.9073 C   0  0  0  0  0  0  0  0  0  0  0  0
   -3.3408  -22.4584   19.4231 N   0  0  0  0  0  0  0  0  0  0  0  0
   -2.2541  -23.6558   18.2251 C   0  0  0  0  0  0  0  0  0  0  0  0
   -4.5630  -23.6793   20.5213 C   0  0  0  0  0  0  0  0  0  0  0  0
   -5.3208  -24.5858   22.0618 C   0  0  0  0  0  0  0  0  0  0  0  0
   -6.7535  -25.1734   21.8277 C   0  0  0  0  0  0  0  0  0  0  0  0
   -7.2668  -26.2045   22.5167 C   0  0  0  0  0  0  0  0  0  0  0  0
   -6.5282  -26.8294   23.4938 N   0  0  0  0  0  0  0  0  0  0  0  0
   -6.9203  -27.8613   24.2710 N   0  0  0  0  0  0  0  0  0  0  0  0
   -5.8398  -28.1709   24.9844 C   0  0  0  0  0  0  0  0  0  0  0  0
   -4.7557  -27.3210   24.7079 C   0  0  0  0  0  0  0  0  0  0  0  0
   -5.2285  -26.4362   23.7611 C   0  0  0  0  0  0  0  0  0  0  0  0
   -4.6476  -25.3544   22.9983 C   0  0  0  0  0  0  0  0  0  0  0  0
   -1.9943  -17.6794   19.0079 N   0  0  0  0  0  0  0  0  0  0  0  0
    1.5037  -14.2486   17.9520 H   0  0  0  0  0  0  0  0  0  0  0  0
    2.6776  -15.5809   17.8909 H   0  0  0  0  0  0  0  0  0  0  0  0
    2.7221  -14.5496   19.2307 H   0  0  0  0  0  0  0  0  0  0  0  0
    1.0766  -16.0587   20.6410 H   0  0  0  0  0  0  0  0  0  0  0  0
    0.9450  -17.0481   18.9597 H   0  0  0  0  0  0  0  0  0  0  0  0
    0.0893  -17.0227   21.7619 H   0  0  0  0  0  0  0  0  0  0  0  0
   -1.3362  -18.7703   21.9022 H   0  0  0  0  0  0  0  0  0  0  0  0
   -4.5221  -20.1715   19.6509 H   0  0  0  0  0  0  0  0  0  0  0  0
   -3.4321  -20.7285   20.9368 H   0  0  0  0  0  0  0  0  0  0  0  0
   -1.0989  -23.4344   18.3866 H   0  0  0  0  0  0  0  0  0  0  0  0
   -2.0619  -23.5826   17.2356 H   0  0  0  0  0  0  0  0  0  0  0  0
   -2.3091  -24.6980   18.9815 H   0  0  0  0  0  0  0  0  0  0  0  0
   -3.7017  -24.2699   20.6648 H   0  0  0  0  0  0  0  0  0  0  0  0
   -5.1025  -22.8109   20.9103 H   0  0  0  0  0  0  0  0  0  0  0  0
   -7.3963  -24.7779   21.0542 H   0  0  0  0  0  0  0  0  0  0  0  0
   -8.2605  -26.6026   22.3527 H   0  0  0  0  0  0  0  0  0  0  0  0
   -5.8864  -28.9967   25.6800 H   0  0  0  0  0  0  0  0  0  0  0  0
   -3.7640  -27.3496   25.1352 H   0  0  0  0  0  0  0  0  0  0  0  0
   -3.5689  -25.3595   23.0104 H   0  0  0  0  0  0  0  0  0  0  0  0
  1  2  1  0
  2  3  1  0
  3  4  1  0
  4  5  2  0
  5  6  1  0
  6  7  1  0
  7  8  1  0
  8  9  1  0
  8 10  1  0
 10 11  1  0
 11 12  1  0
 12 13  2  0
 13 14  1  0
 14 15  1  0
 15 16  2  0
 16 17  1  0
 17 18  2  0
 18 19  1  0
  6 20  2  0
 20  3  1  0
 19 11  2  0
 18 14  1  0
  1 21  1  0
  1 22  1  0
  1 23  1  0
  2 24  1  0
  2 25  1  0
  4 26  1  0
  5 27  1  0
  7 28  1  0
  7 29  1  0
  9 30  1  0
  9 31  1  0
  9 32  1  0
 10 33  1  0
 10 34  1  0
 12 35  1  0
 13 36  1  0
 16 37  1  0
 17 38  1  0
 19 39  1  0
M  END
>  <Energy>  (957) 
864.47455153704914

>  <compound_id>  (957) 
46880

>  <target_id>  (957) 
1

>  <reference_id>  (957) 
122

>  <inspiration_ids>  (957) 
[122, 68]

>  <energy_score>  (957) 
773.7916146432435

>  <distance_score>  (957) 
16.083781293260486

>  <path>  (957) 
/opt/xchem-fragalysis-2/maxwin/BulkDock/SCRATCH/511023/C46880-P122/C46880-P122.minimised.mol

>  <scratch_subdir>  (957) 
/opt/xchem-fragalysis-2/maxwin/BulkDock/SCRATCH/511023/C46880-P122

>  <fragmenstein_runtime>  (957) 
11.71856427192688

>  <fragmenstein_outcome>  (957) 
too moved

>  <fragmenstein_mode>  (957) 
expansion

>  <fragmenstein_error>  (957) 


$$$$
C46880-P68
     RDKit          3D

 39 41  0  0  0  0  0  0  0  0999 V2000
    9.1026  -14.3682   16.4510 C   0  0  0  0  0  0  0  0  0  0  0  0
    7.9814  -14.2238   15.4379 C   0  0  0  0  0  0  0  0  0  0  0  0
    6.8748  -15.1181   15.7142 N   0  0  0  0  0  0  0  0  0  0  0  0
    5.7360  -14.8199   16.3944 C   0  0  0  0  0  0  0  0  0  0  0  0
    4.9944  -15.9836   16.3984 C   0  0  0  0  0  0  0  0  0  0  0  0
    5.7572  -16.9579   15.6913 C   0  0  0  0  0  0  0  0  0  0  0  0
    5.4852  -18.4605   15.3451 C   0  0  0  0  0  0  0  0  0  0  0  0
    4.3298  -19.2404   16.0181 N   0  0  0  0  0  0  0  0  0  0  0  0
    3.0804  -18.7943   15.4086 C   0  0  0  0  0  0  0  0  0  0  0  0
    4.3883  -20.7475   15.7909 C   0  0  0  0  0  0  0  0  0  0  0  0
    3.4326  -21.8624   16.4936 C   0  0  0  0  0  0  0  0  0  0  0  0
    3.7968  -23.2568   16.1273 C   0  0  0  0  0  0  0  0  0  0  0  0
    3.2394  -24.3186   16.7354 C   0  0  0  0  0  0  0  0  0  0  0  0
    2.2545  -24.1352   17.6935 N   0  0  0  0  0  0  0  0  0  0  0  0
    1.6704  -25.0861   18.4526 N   0  0  0  0  0  0  0  0  0  0  0  0
    0.8320  -24.4369   19.2427 C   0  0  0  0  0  0  0  0  0  0  0  0
    0.8347  -23.0527   18.9982 C   0  0  0  0  0  0  0  0  0  0  0  0
    1.7737  -22.8615   18.0052 C   0  0  0  0  0  0  0  0  0  0  0  0
    2.4052  -21.7165   17.3779 C   0  0  0  0  0  0  0  0  0  0  0  0
    6.9159  -16.3923   15.2742 N   0  0  0  0  0  0  0  0  0  0  0  0
    9.9175  -13.6761   16.2176 H   0  0  0  0  0  0  0  0  0  0  0  0
    8.7486  -14.1508   17.4643 H   0  0  0  0  0  0  0  0  0  0  0  0
    9.5077  -15.3857   16.4504 H   0  0  0  0  0  0  0  0  0  0  0  0
    7.5918  -13.1999   15.4419 H   0  0  0  0  0  0  0  0  0  0  0  0
    8.3399  -14.4419   14.4260 H   0  0  0  0  0  0  0  0  0  0  0  0
    5.5506  -13.8426   16.8167 H   0  0  0  0  0  0  0  0  0  0  0  0
    4.0274  -16.1309   16.8579 H   0  0  0  0  0  0  0  0  0  0  0  0
    6.4064  -18.9880   15.6272 H   0  0  0  0  0  0  0  0  0  0  0  0
    5.3900  -18.5463   14.2546 H   0  0  0  0  0  0  0  0  0  0  0  0
    2.2380  -19.3199   15.8540 H   0  0  0  0  0  0  0  0  0  0  0  0
    2.9437  -17.7335   15.6056 H   0  0  0  0  0  0  0  0  0  0  0  0
    3.0583  -18.9754   14.3289 H   0  0  0  0  0  0  0  0  0  0  0  0
    5.4038  -21.0474   16.0831 H   0  0  0  0  0  0  0  0  0  0  0  0
    4.3213  -20.9279   14.7079 H   0  0  0  0  0  0  0  0  0  0  0  0
    4.5540  -23.4027   15.3635 H   0  0  0  0  0  0  0  0  0  0  0  0
    3.5049  -25.3446   16.5230 H   0  0  0  0  0  0  0  0  0  0  0  0
    0.3162  -25.0176   19.9906 H   0  0  0  0  0  0  0  0  0  0  0  0
    0.3262  -22.2835   19.5546 H   0  0  0  0  0  0  0  0  0  0  0  0
    2.1041  -20.7233   17.6937 H   0  0  0  0  0  0  0  0  0  0  0  0
  1  2  1  0
  2  3  1  0
  3  4  1  0
  4  5  2  0
  5  6  1  0
  6  7  1  0
  7  8  1  0
  8  9  1  0
  8 10  1  0
 10 11  1  0
 11 12  1  0
 12 13  2  0
 13 14  1  0
 14 15  1  0
 15 16  2  0
 16 17  1  0
 17 18  2  0
 18 19  1  0
  6 20  2  0
 20  3  1  0
 19 11  2  0
 18 14  1  0
  1 21  1  0
  1 22  1  0
  1 23  1  0
  2 24  1  0
  2 25  1  0
  4 26  1  0
  5 27  1  0
  7 28  1  0
  7 29  1  0
  9 30  1  0
  9 31  1  0
  9 32  1  0
 10 33  1  0
 10 34  1  0
 12 35  1  0
 13 36  1  0
 16 37  1  0
 17 38  1  0
 19 39  1  0
M  END
>  <Energy>  (958) 
75.815594301673144

>  <compound_id>  (958) 
46880

>  <target_id>  (958) 
1

>  <reference_id>  (958) 
68

>  <inspiration_ids>  (958) 
[122, 68]

>  <energy_score>  (958) 
-14.867342592137788

>  <distance_score>  (958) 
17.08428558672519

>  <path>  (958) 
/opt/xchem-fragalysis-2/maxwin/BulkDock/SCRATCH/511023/C46880-P68/C46880-P68.minimised.mol

>  <scratch_subdir>  (958) 
/opt/xchem-fragalysis-2/maxwin/BulkDock/SCRATCH/511023/C46880-P68

>  <fragmenstein_runtime>  (958) 
18.43691658973694

>  <fragmenstein_outcome>  (958) 
too moved

>  <fragmenstein_mode>  (958) 
expansion

>  <fragmenstein_error>  (958) 


$$$$
C46881-P122
     RDKit          3D

 42 44  0  0  0  0  0  0  0  0999 V2000
    7.2238  -16.9437   11.5009 C   0  0  0  0  0  0  0  0  0  0  0  0
    6.3519  -16.1963   12.5009 C   0  0  0  0  0  0  0  0  0  0  0  0
    6.6975  -16.5246   13.9534 C   0  0  0  0  0  0  0  0  0  0  0  0
    6.3322  -17.9422   14.3427 C   0  0  0  0  0  0  0  0  0  0  0  0
    5.2059  -18.7542   14.1882 C   0  0  0  0  0  0  0  0  0  0  0  0
    5.4967  -20.0415   14.8098 C   0  0  0  0  0  0  0  0  0  0  0  0
    4.6692  -21.4509   14.7508 C   0  0  0  0  0  0  0  0  0  0  0  0
    3.8983  -22.0120   15.9734 N   0  0  0  0  0  0  0  0  0  0  0  0
    2.7721  -21.1092   16.2242 C   0  0  0  0  0  0  0  0  0  0  0  0
    3.3573  -23.4462   15.7228 C   0  0  0  0  0  0  0  0  0  0  0  0
    2.3851  -24.3989   16.6769 C   0  0  0  0  0  0  0  0  0  0  0  0
    1.0155  -23.9574   16.9912 C   0  0  0  0  0  0  0  0  0  0  0  0
    0.1000  -24.7796   17.5402 C   0  0  0  0  0  0  0  0  0  0  0  0
    0.4297  -26.0757   17.9012 N   0  0  0  0  0  0  0  0  0  0  0  0
   -0.3913  -27.0096   18.4489 N   0  0  0  0  0  0  0  0  0  0  0  0
    0.3902  -28.0683   18.6550 C   0  0  0  0  0  0  0  0  0  0  0  0
    1.7080  -27.8509   18.2059 C   0  0  0  0  0  0  0  0  0  0  0  0
    1.7181  -26.5621   17.7032 C   0  0  0  0  0  0  0  0  0  0  0  0
    2.6859  -25.6853   17.0533 C   0  0  0  0  0  0  0  0  0  0  0  0
    6.7328  -19.9584   15.3516 N   0  0  0  0  0  0  0  0  0  0  0  0
    7.2290  -18.7540   14.9828 N   0  0  0  0  0  0  0  0  0  0  0  0
    7.0726  -18.0255   11.5658 H   0  0  0  0  0  0  0  0  0  0  0  0
    6.9769  -16.6322   10.4809 H   0  0  0  0  0  0  0  0  0  0  0  0
    8.2844  -16.7331   11.6712 H   0  0  0  0  0  0  0  0  0  0  0  0
    6.4913  -15.1200   12.3445 H   0  0  0  0  0  0  0  0  0  0  0  0
    5.2977  -16.4132   12.2935 H   0  0  0  0  0  0  0  0  0  0  0  0
    6.1676  -15.8423   14.6242 H   0  0  0  0  0  0  0  0  0  0  0  0
    7.7682  -16.3551   14.1229 H   0  0  0  0  0  0  0  0  0  0  0  0
    4.2845  -18.4969   13.6779 H   0  0  0  0  0  0  0  0  0  0  0  0
    5.4281  -22.1994   14.4872 H   0  0  0  0  0  0  0  0  0  0  0  0
    3.9801  -21.3702   13.8995 H   0  0  0  0  0  0  0  0  0  0  0  0
    1.9980  -21.2012   15.4559 H   0  0  0  0  0  0  0  0  0  0  0  0
    3.0817  -20.0627   16.2451 H   0  0  0  0  0  0  0  0  0  0  0  0
    2.3386  -21.3129   17.2028 H   0  0  0  0  0  0  0  0  0  0  0  0
    4.2575  -24.0538   15.5587 H   0  0  0  0  0  0  0  0  0  0  0  0
    2.8317  -23.4149   14.7574 H   0  0  0  0  0  0  0  0  0  0  0  0
    0.7690  -22.9321   16.7628 H   0  0  0  0  0  0  0  0  0  0  0  0
   -0.9136  -24.4856   17.7544 H   0  0  0  0  0  0  0  0  0  0  0  0
   -0.0305  -28.9545   19.1125 H   0  0  0  0  0  0  0  0  0  0  0  0
    2.5385  -28.5407   18.2343 H   0  0  0  0  0  0  0  0  0  0  0  0
    3.6604  -26.1008   16.8159 H   0  0  0  0  0  0  0  0  0  0  0  0
    8.1873  -18.5419   15.2408 H   0  0  0  0  0  0  0  0  0  0  0  0
  1  2  1  0
  2  3  1  0
  3  4  1  0
  4  5  2  0
  5  6  1  0
  6  7  1  0
  7  8  1  0
  8  9  1  0
  8 10  1  0
 10 11  1  0
 11 12  1  0
 12 13  2  0
 13 14  1  0
 14 15  1  0
 15 16  2  0
 16 17  1  0
 17 18  2  0
 18 19  1  0
  6 20  2  0
 20 21  1  0
 21  4  1  0
 19 11  2  0
 18 14  1  0
  1 22  1  0
  1 23  1  0
  1 24  1  0
  2 25  1  0
  2 26  1  0
  3 27  1  0
  3 28  1  0
  5 29  1  0
  7 30  1  0
  7 31  1  0
  9 32  1  0
  9 33  1  0
  9 34  1  0
 10 35  1  0
 10 36  1  0
 12 37  1  0
 13 38  1  0
 16 39  1  0
 17 40  1  0
 19 41  1  0
 21 42  1  0
M  END
>  <Energy>  (959) 
91.070894870598821

>  <compound_id>  (959) 
46881

>  <target_id>  (959) 
1

>  <reference_id>  (959) 
122

>  <inspiration_ids>  (959) 
[122, 68]

>  <energy_score>  (959) 
2.3509545413314754

>  <distance_score>  (959) 
16.433802880281903

>  <path>  (959) 
/opt/xchem-fragalysis-2/maxwin/BulkDock/SCRATCH/511023/C46881-P122/C46881-P122.minimised.mol

>  <scratch_subdir>  (959) 
/opt/xchem-fragalysis-2/maxwin/BulkDock/SCRATCH/511023/C46881-P122

>  <fragmenstein_runtime>  (959) 
15.786573886871338

>  <fragmenstein_outcome>  (959) 
too moved

>  <fragmenstein_mode>  (959) 
expansion

>  <fragmenstein_error>  (959) 


$$$$
C46881-P68
     RDKit          3D

 42 44  0  0  0  0  0  0  0  0999 V2000
    6.1972  -14.8796   15.7878 C   0  0  0  0  0  0  0  0  0  0  0  0
    6.1420  -16.3969   15.7598 C   0  0  0  0  0  0  0  0  0  0  0  0
    4.7250  -16.9196   15.4957 C   0  0  0  0  0  0  0  0  0  0  0  0
    4.6051  -18.4256   15.6556 C   0  0  0  0  0  0  0  0  0  0  0  0
    3.5645  -19.3066   15.9803 C   0  0  0  0  0  0  0  0  0  0  0  0
    4.1140  -20.6415   16.0430 C   0  0  0  0  0  0  0  0  0  0  0  0
    3.5646  -22.1419   16.3558 C   0  0  0  0  0  0  0  0  0  0  0  0
    2.1639  -22.5767   16.8628 N   0  0  0  0  0  0  0  0  0  0  0  0
    1.8564  -21.8506   18.0888 C   0  0  0  0  0  0  0  0  0  0  0  0
    2.1676  -24.0886   17.1866 C   0  0  0  0  0  0  0  0  0  0  0  0
    0.8891  -25.0021   17.6424 C   0  0  0  0  0  0  0  0  0  0  0  0
    0.0837  -25.6636   16.5915 C   0  0  0  0  0  0  0  0  0  0  0  0
   -0.8397  -26.6020   16.8861 C   0  0  0  0  0  0  0  0  0  0  0  0
   -1.0662  -26.9915   18.2016 N   0  0  0  0  0  0  0  0  0  0  0  0
   -1.9750  -27.8991   18.6496 N   0  0  0  0  0  0  0  0  0  0  0  0
   -1.7878  -27.9431   19.9694 C   0  0  0  0  0  0  0  0  0  0  0  0
   -0.7719  -27.0692   20.3945 C   0  0  0  0  0  0  0  0  0  0  0  0
   -0.3254  -26.4454   19.2447 C   0  0  0  0  0  0  0  0  0  0  0  0
    0.6738  -25.4424   18.9203 C   0  0  0  0  0  0  0  0  0  0  0  0
    5.4387  -20.5463   15.7405 N   0  0  0  0  0  0  0  0  0  0  0  0
    5.6484  -19.2618   15.3982 N   0  0  0  0  0  0  0  0  0  0  0  0
    5.6327  -14.4896   16.6393 H   0  0  0  0  0  0  0  0  0  0  0  0
    7.2329  -14.5407   15.8919 H   0  0  0  0  0  0  0  0  0  0  0  0
    5.7898  -14.4512   14.8670 H   0  0  0  0  0  0  0  0  0  0  0  0
    6.5265  -16.7802   16.7114 H   0  0  0  0  0  0  0  0  0  0  0  0
    6.8215  -16.7549   14.9769 H   0  0  0  0  0  0  0  0  0  0  0  0
    4.0160  -16.4447   16.1839 H   0  0  0  0  0  0  0  0  0  0  0  0
    4.4355  -16.6611   14.4726 H   0  0  0  0  0  0  0  0  0  0  0  0
    2.5313  -19.0449   16.1495 H   0  0  0  0  0  0  0  0  0  0  0  0
    4.3025  -22.5594   17.0552 H   0  0  0  0  0  0  0  0  0  0  0  0
    3.6986  -22.6678   15.4002 H   0  0  0  0  0  0  0  0  0  0  0  0
    1.7760  -20.7763   17.8999 H   0  0  0  0  0  0  0  0  0  0  0  0
    2.6027  -22.0157   18.8640 H   0  0  0  0  0  0  0  0  0  0  0  0
    0.8912  -22.1745   18.4891 H   0  0  0  0  0  0  0  0  0  0  0  0
    2.5332  -24.5782   16.2725 H   0  0  0  0  0  0  0  0  0  0  0  0
    2.9511  -24.2686   17.9321 H   0  0  0  0  0  0  0  0  0  0  0  0
    0.2898  -25.4137   15.5575 H   0  0  0  0  0  0  0  0  0  0  0  0
   -1.4322  -27.1078   16.1360 H   0  0  0  0  0  0  0  0  0  0  0  0
   -2.3948  -28.6106   20.5658 H   0  0  0  0  0  0  0  0  0  0  0  0
   -0.4183  -26.9012   21.4006 H   0  0  0  0  0  0  0  0  0  0  0  0
    1.2857  -25.0599   19.7308 H   0  0  0  0  0  0  0  0  0  0  0  0
    6.5585  -19.0179   15.0273 H   0  0  0  0  0  0  0  0  0  0  0  0
  1  2  1  0
  2  3  1  0
  3  4  1  0
  4  5  2  0
  5  6  1  0
  6  7  1  0
  7  8  1  0
  8  9  1  0
  8 10  1  0
 10 11  1  0
 11 12  1  0
 12 13  2  0
 13 14  1  0
 14 15  1  0
 15 16  2  0
 16 17  1  0
 17 18  2  0
 18 19  1  0
  6 20  2  0
 20 21  1  0
 21  4  1  0
 19 11  2  0
 18 14  1  0
  1 22  1  0
  1 23  1  0
  1 24  1  0
  2 25  1  0
  2 26  1  0
  3 27  1  0
  3 28  1  0
  5 29  1  0
  7 30  1  0
  7 31  1  0
  9 32  1  0
  9 33  1  0
  9 34  1  0
 10 35  1  0
 10 36  1  0
 12 37  1  0
 13 38  1  0
 16 39  1  0
 17 40  1  0
 19 41  1  0
 21 42  1  0
M  END
>  <Energy>  (960) 
91.241991324022848

>  <compound_id>  (960) 
46881

>  <target_id>  (960) 
1

>  <reference_id>  (960) 
68

>  <inspiration_ids>  (960) 
[122, 68]

>  <energy_score>  (960) 
2.5220509947573646

>  <distance_score>  (960) 
15.95185765456906

>  <path>  (960) 
/opt/xchem-fragalysis-2/maxwin/BulkDock/SCRATCH/511023/C46881-P68/C46881-P68.minimised.mol

>  <scratch_subdir>  (960) 
/opt/xchem-fragalysis-2/maxwin/BulkDock/SCRATCH/511023/C46881-P68

>  <fragmenstein_runtime>  (960) 
20.964418649673462

>  <fragmenstein_outcome>  (960) 
too moved

>  <fragmenstein_mode>  (960) 
expansion

>  <fragmenstein_error>  (960) 


$$$$
C46882-P122
     RDKit          3D

 39 41  0  0  0  0  0  0  0  0999 V2000
    3.0398   -4.4368   16.5847 C   0  0  0  0  0  0  0  0  0  0  0  0
    2.6128   -5.8098   16.6433 N   0  0  0  0  0  0  0  0  0  0  0  0
    3.2029   -6.8284   17.3216 C   0  0  0  0  0  0  0  0  0  0  0  0
    2.5312   -8.0416   16.9908 C   0  0  0  0  0  0  0  0  0  0  0  0
    2.8155   -9.7467   17.6903 C   0  0  0  0  0  0  0  0  0  0  0  0
    1.7447   -9.3084   18.4809 O   0  0  0  0  0  0  0  0  0  0  0  0
    3.2542  -11.7815   17.4849 C   0  0  0  0  0  0  0  0  0  0  0  0
    3.0950  -13.6543   18.2290 N   0  0  0  0  0  0  0  0  0  0  0  0
    1.9370  -15.1365   18.5781 C   0  0  0  0  0  0  0  0  0  0  0  0
    0.3622  -16.0279   19.6727 C   0  0  0  0  0  0  0  0  0  0  0  0
    0.1077  -16.9264   20.6256 C   0  0  0  0  0  0  0  0  0  0  0  0
   -1.0727  -17.7960   20.8770 C   0  0  0  0  0  0  0  0  0  0  0  0
   -2.3161  -18.0280   20.3254 C   0  0  0  0  0  0  0  0  0  0  0  0
   -3.0704  -19.1434   20.6697 N   0  0  0  0  0  0  0  0  0  0  0  0
   -4.1081  -19.4530   19.8914 C   0  0  0  0  0  0  0  0  0  0  0  0
   -4.4213  -18.6612   18.8212 C   0  0  0  0  0  0  0  0  0  0  0  0
   -3.6474  -17.4857   18.6115 C   0  0  0  0  0  0  0  0  0  0  0  0
   -2.5141  -17.0627   19.4180 C   0  0  0  0  0  0  0  0  0  0  0  0
   -1.3857  -15.8778   19.4152 C   0  0  0  0  0  0  0  0  0  0  0  0
    1.3596   -7.4597   16.4178 C   0  0  0  0  0  0  0  0  0  0  0  0
    1.4594   -6.1704   16.0819 N   0  0  0  0  0  0  0  0  0  0  0  0
    3.2518   -4.0949   17.5999 H   0  0  0  0  0  0  0  0  0  0  0  0
    2.2464   -3.8221   16.1510 H   0  0  0  0  0  0  0  0  0  0  0  0
    3.9315   -4.3874   15.9565 H   0  0  0  0  0  0  0  0  0  0  0  0
    4.0878   -6.6430   17.9141 H   0  0  0  0  0  0  0  0  0  0  0  0
    3.7043   -9.2963   18.1244 H   0  0  0  0  0  0  0  0  0  0  0  0
    1.7251   -9.6420   19.3843 H   0  0  0  0  0  0  0  0  0  0  0  0
    4.2867  -11.8715   17.6070 H   0  0  0  0  0  0  0  0  0  0  0  0
    2.9098  -11.7873   18.4212 H   0  0  0  0  0  0  0  0  0  0  0  0
    3.9028  -13.7905   18.8611 H   0  0  0  0  0  0  0  0  0  0  0  0
    2.3715  -14.8944   19.5562 H   0  0  0  0  0  0  0  0  0  0  0  0
    1.3258  -14.4646   17.9337 H   0  0  0  0  0  0  0  0  0  0  0  0
   -0.0729  -16.3261   21.5453 H   0  0  0  0  0  0  0  0  0  0  0  0
   -0.7694  -18.4743   21.6515 H   0  0  0  0  0  0  0  0  0  0  0  0
   -4.6626  -20.3478   20.1441 H   0  0  0  0  0  0  0  0  0  0  0  0
   -5.2481  -18.9006   18.1632 H   0  0  0  0  0  0  0  0  0  0  0  0
   -3.9246  -16.8935   17.7407 H   0  0  0  0  0  0  0  0  0  0  0  0
   -1.6587  -15.0767   18.7253 H   0  0  0  0  0  0  0  0  0  0  0  0
    0.4180   -7.9430   16.2524 H   0  0  0  0  0  0  0  0  0  0  0  0
  1  2  1  0
  2  3  1  0
  3  4  2  0
  4  5  1  0
  5  6  1  0
  5  7  1  0
  7  8  1  0
  8  9  1  0
  9 10  1  0
 10 11  2  0
 11 12  1  0
 12 13  2  0
 13 14  1  0
 14 15  2  0
 15 16  1  0
 16 17  2  0
 17 18  1  0
 18 19  2  0
  4 20  1  0
 20 21  2  0
 21  2  1  0
 19 10  1  0
 18 13  1  0
  1 22  1  0
  1 23  1  0
  1 24  1  0
  3 25  1  0
  5 26  1  0
  6 27  1  0
  7 28  1  0
  7 29  1  0
  8 30  1  0
  9 31  1  0
  9 32  1  0
 11 33  1  0
 12 34  1  0
 15 35  1  0
 16 36  1  0
 17 37  1  0
 19 38  1  0
 20 39  1  0
M  END
>  <Energy>  (961) 
851.12220989979346

>  <compound_id>  (961) 
46882

>  <target_id>  (961) 
1

>  <reference_id>  (961) 
122

>  <inspiration_ids>  (961) 
[122, 68]

>  <energy_score>  (961) 
751.5665787020507

>  <distance_score>  (961) 
18.819189347552875

>  <path>  (961) 
/opt/xchem-fragalysis-2/maxwin/BulkDock/SCRATCH/511023/C46882-P122/C46882-P122.minimised.mol

>  <scratch_subdir>  (961) 
/opt/xchem-fragalysis-2/maxwin/BulkDock/SCRATCH/511023/C46882-P122

>  <fragmenstein_runtime>  (961) 
9.856869459152222

>  <fragmenstein_outcome>  (961) 
too moved

>  <fragmenstein_mode>  (961) 
expansion

>  <fragmenstein_error>  (961) 


$$$$
C46882-P68
     RDKit          3D

 39 41  0  0  0  0  0  0  0  0999 V2000
    1.5797  -21.3565   18.4698 C   0  0  0  0  0  0  0  0  0  0  0  0
    0.7614  -21.4556   19.6533 N   0  0  0  0  0  0  0  0  0  0  0  0
   -0.3457  -22.2422   19.7972 C   0  0  0  0  0  0  0  0  0  0  0  0
   -0.7118  -22.2036   21.1315 C   0  0  0  0  0  0  0  0  0  0  0  0
   -1.8339  -22.9516   21.8712 C   0  0  0  0  0  0  0  0  0  0  0  0
   -3.0978  -22.3165   21.6187 O   0  0  0  0  0  0  0  0  0  0  0  0
   -2.0214  -24.4973   21.5644 C   0  0  0  0  0  0  0  0  0  0  0  0
   -2.9568  -25.2213   22.5057 N   0  0  0  0  0  0  0  0  0  0  0  0
   -3.3353  -26.5752   22.0577 C   0  0  0  0  0  0  0  0  0  0  0  0
   -3.5604  -27.5563   23.2015 C   0  0  0  0  0  0  0  0  0  0  0  0
   -4.7027  -27.5114   23.9987 C   0  0  0  0  0  0  0  0  0  0  0  0
   -4.9168  -28.4868   24.9879 C   0  0  0  0  0  0  0  0  0  0  0  0
   -4.0478  -29.5581   25.1965 C   0  0  0  0  0  0  0  0  0  0  0  0
   -4.3438  -30.5352   26.0831 N   0  0  0  0  0  0  0  0  0  0  0  0
   -3.5055  -31.5899   26.1884 C   0  0  0  0  0  0  0  0  0  0  0  0
   -2.3256  -31.7001   25.4824 C   0  0  0  0  0  0  0  0  0  0  0  0
   -1.9918  -30.6671   24.6120 C   0  0  0  0  0  0  0  0  0  0  0  0
   -2.8736  -29.5885   24.4263 C   0  0  0  0  0  0  0  0  0  0  0  0
   -2.6354  -28.5867   23.4560 C   0  0  0  0  0  0  0  0  0  0  0  0
    0.1943  -21.2485   21.6737 C   0  0  0  0  0  0  0  0  0  0  0  0
    1.0684  -20.7945   20.7788 N   0  0  0  0  0  0  0  0  0  0  0  0
    2.5127  -21.8907   18.6522 H   0  0  0  0  0  0  0  0  0  0  0  0
    1.7521  -20.3035   18.2423 H   0  0  0  0  0  0  0  0  0  0  0  0
    1.0568  -21.8274   17.6336 H   0  0  0  0  0  0  0  0  0  0  0  0
   -0.7453  -22.8091   18.9670 H   0  0  0  0  0  0  0  0  0  0  0  0
   -1.6389  -22.8486   22.9464 H   0  0  0  0  0  0  0  0  0  0  0  0
   -2.9145  -21.3697   21.4914 H   0  0  0  0  0  0  0  0  0  0  0  0
   -2.4177  -24.5963   20.5462 H   0  0  0  0  0  0  0  0  0  0  0  0
   -1.0440  -24.9909   21.6081 H   0  0  0  0  0  0  0  0  0  0  0  0
   -3.7990  -24.6499   22.5966 H   0  0  0  0  0  0  0  0  0  0  0  0
   -4.2409  -26.5227   21.4408 H   0  0  0  0  0  0  0  0  0  0  0  0
   -2.5511  -26.9840   21.4076 H   0  0  0  0  0  0  0  0  0  0  0  0
   -5.4367  -26.7212   23.8614 H   0  0  0  0  0  0  0  0  0  0  0  0
   -5.8036  -28.3991   25.6065 H   0  0  0  0  0  0  0  0  0  0  0  0
   -3.8168  -32.3575   26.8906 H   0  0  0  0  0  0  0  0  0  0  0  0
   -1.6740  -32.5558   25.6123 H   0  0  0  0  0  0  0  0  0  0  0  0
   -1.0708  -30.7299   24.0370 H   0  0  0  0  0  0  0  0  0  0  0  0
   -1.7291  -28.6394   22.8536 H   0  0  0  0  0  0  0  0  0  0  0  0
    0.2522  -20.8877   22.6928 H   0  0  0  0  0  0  0  0  0  0  0  0
  1  2  1  0
  2  3  1  0
  3  4  2  0
  4  5  1  0
  5  6  1  0
  5  7  1  0
  7  8  1  0
  8  9  1  0
  9 10  1  0
 10 11  2  0
 11 12  1  0
 12 13  2  0
 13 14  1  0
 14 15  2  0
 15 16  1  0
 16 17  2  0
 17 18  1  0
 18 19  2  0
  4 20  1  0
 20 21  2  0
 21  2  1  0
 19 10  1  0
 18 13  1  0
  1 22  1  0
  1 23  1  0
  1 24  1  0
  3 25  1  0
  5 26  1  0
  6 27  1  0
  7 28  1  0
  7 29  1  0
  8 30  1  0
  9 31  1  0
  9 32  1  0
 11 33  1  0
 12 34  1  0
 15 35  1  0
 16 36  1  0
 17 37  1  0
 19 38  1  0
 20 39  1  0
M  END
>  <Energy>  (962) 
76.09759501360945

>  <compound_id>  (962) 
46882

>  <target_id>  (962) 
1

>  <reference_id>  (962) 
68

>  <inspiration_ids>  (962) 
[122, 68]

>  <energy_score>  (962) 
-23.458036184131515

>  <distance_score>  (962) 
15.41229434808279

>  <path>  (962) 
/opt/xchem-fragalysis-2/maxwin/BulkDock/SCRATCH/511023/C46882-P68/C46882-P68.minimised.mol

>  <scratch_subdir>  (962) 
/opt/xchem-fragalysis-2/maxwin/BulkDock/SCRATCH/511023/C46882-P68

>  <fragmenstein_runtime>  (962) 
26.947332859039307

>  <fragmenstein_outcome>  (962) 
too moved

>  <fragmenstein_mode>  (962) 
expansion

>  <fragmenstein_error>  (962) 


$$$$
C46883-P122
     RDKit          3D

 37 39  0  0  0  0  0  0  0  0999 V2000
    3.8408  -11.0074   15.3931 C   0  0  0  0  0  0  0  0  0  0  0  0
    2.9866  -11.7760   16.3518 N   0  0  0  0  0  0  0  0  0  0  0  0
    1.7004  -12.9545   15.7963 C   0  0  0  0  0  0  0  0  0  0  0  0
    1.6710  -14.5066   16.7584 C   0  0  0  0  0  0  0  0  0  0  0  0
    2.2332  -16.4642   16.5024 C   0  0  0  0  0  0  0  0  0  0  0  0
    2.6680  -15.9528   17.9590 O   0  0  0  0  0  0  0  0  0  0  0  0
    1.6185  -18.4839   16.7506 C   0  0  0  0  0  0  0  0  0  0  0  0
    1.1962  -20.3816   16.3005 N   0  0  0  0  0  0  0  0  0  0  0  0
    0.0795  -22.0750   16.5451 C   0  0  0  0  0  0  0  0  0  0  0  0
   -1.7154  -23.3732   16.4800 C   0  0  0  0  0  0  0  0  0  0  0  0
   -2.2770  -25.3610   16.2665 C   0  0  0  0  0  0  0  0  0  0  0  0
   -2.0688  -26.4113   15.3654 C   0  0  0  0  0  0  0  0  0  0  0  0
   -3.1573  -26.3644   14.5454 N   0  0  0  0  0  0  0  0  0  0  0  0
   -4.0389  -27.2756   14.1073 N   0  0  0  0  0  0  0  0  0  0  0  0
   -5.0221  -26.5333   13.5909 C   0  0  0  0  0  0  0  0  0  0  0  0
   -4.7457  -25.1460   13.6543 C   0  0  0  0  0  0  0  0  0  0  0  0
   -3.5328  -25.0686   14.3014 C   0  0  0  0  0  0  0  0  0  0  0  0
   -2.5082  -23.9560   14.8261 C   0  0  0  0  0  0  0  0  0  0  0  0
    2.6121  -13.7902   18.0625 C   0  0  0  0  0  0  0  0  0  0  0  0
    3.3441  -12.4317   17.8377 N   0  0  0  0  0  0  0  0  0  0  0  0
    4.5792  -11.6545   14.9490 H   0  0  0  0  0  0  0  0  0  0  0  0
    3.3990  -10.6066   14.4711 H   0  0  0  0  0  0  0  0  0  0  0  0
    4.0829  -10.0475   15.8536 H   0  0  0  0  0  0  0  0  0  0  0  0
    1.5983  -12.7860   14.7345 H   0  0  0  0  0  0  0  0  0  0  0  0
    3.1302  -16.4602   15.8661 H   0  0  0  0  0  0  0  0  0  0  0  0
    3.5252  -15.4646   17.8487 H   0  0  0  0  0  0  0  0  0  0  0  0
    1.5393  -18.5989   17.8260 H   0  0  0  0  0  0  0  0  0  0  0  0
    2.6075  -18.7944   16.4012 H   0  0  0  0  0  0  0  0  0  0  0  0
    2.1314  -20.7892   16.3813 H   0  0  0  0  0  0  0  0  0  0  0  0
    0.6784  -22.4301   17.4647 H   0  0  0  0  0  0  0  0  0  0  0  0
    0.9566  -22.4583   15.9696 H   0  0  0  0  0  0  0  0  0  0  0  0
   -2.9668  -25.7937   17.0127 H   0  0  0  0  0  0  0  0  0  0  0  0
   -1.1950  -26.4417   14.7166 H   0  0  0  0  0  0  0  0  0  0  0  0
   -5.8868  -27.0283   13.1667 H   0  0  0  0  0  0  0  0  0  0  0  0
   -5.3517  -24.3247   13.3006 H   0  0  0  0  0  0  0  0  0  0  0  0
   -2.6940  -23.2675   13.9721 H   0  0  0  0  0  0  0  0  0  0  0  0
    2.9092  -14.3251   18.9474 H   0  0  0  0  0  0  0  0  0  0  0  0
  1  2  1  0
  2  3  1  0
  3  4  2  0
  4  5  1  0
  5  6  1  0
  5  7  1  0
  7  8  1  0
  8  9  1  0
  9 10  1  0
 10 11  1  0
 11 12  2  0
 12 13  1  0
 13 14  1  0
 14 15  2  0
 15 16  1  0
 16 17  2  0
 17 18  1  0
  4 19  1  0
 19 20  2  0
 20  2  1  0
 18 10  2  0
 17 13  1  0
  1 21  1  0
  1 22  1  0
  1 23  1  0
  3 24  1  0
  5 25  1  0
  6 26  1  0
  7 27  1  0
  7 28  1  0
  8 29  1  0
  9 30  1  0
  9 31  1  0
 11 32  1  0
 12 33  1  0
 15 34  1  0
 16 35  1  0
 18 36  1  0
 19 37  1  0
M  END
>  <Energy>  (963) 
1513.6753519483968

>  <compound_id>  (963) 
46883

>  <target_id>  (963) 
1

>  <reference_id>  (963) 
122

>  <inspiration_ids>  (963) 
[122, 68]

>  <energy_score>  (963) 
1417.096628974146

>  <distance_score>  (963) 
14.992322600329526

>  <path>  (963) 
/opt/xchem-fragalysis-2/maxwin/BulkDock/SCRATCH/511023/C46883-P122/C46883-P122.minimised.mol

>  <scratch_subdir>  (963) 
/opt/xchem-fragalysis-2/maxwin/BulkDock/SCRATCH/511023/C46883-P122

>  <fragmenstein_runtime>  (963) 
13.014515161514282

>  <fragmenstein_outcome>  (963) 
too moved

>  <fragmenstein_mode>  (963) 
expansion

>  <fragmenstein_error>  (963) 


$$$$
C46883-P68
     RDKit          3D

 37 39  0  0  0  0  0  0  0  0999 V2000
    4.4884  -18.0266   15.2983 C   0  0  0  0  0  0  0  0  0  0  0  0
    4.5357  -19.3920   15.7484 N   0  0  0  0  0  0  0  0  0  0  0  0
    3.4713  -20.1509   16.1517 C   0  0  0  0  0  0  0  0  0  0  0  0
    3.9203  -21.4559   16.3410 C   0  0  0  0  0  0  0  0  0  0  0  0
    3.0581  -22.7284   16.5648 C   0  0  0  0  0  0  0  0  0  0  0  0
    3.2739  -23.6230   15.4576 O   0  0  0  0  0  0  0  0  0  0  0  0
    3.1540  -23.6349   17.8817 C   0  0  0  0  0  0  0  0  0  0  0  0
    2.0684  -24.7256   17.9383 N   0  0  0  0  0  0  0  0  0  0  0  0
    2.3378  -25.8941   18.8297 C   0  0  0  0  0  0  0  0  0  0  0  0
    1.1388  -26.8508   19.2565 C   0  0  0  0  0  0  0  0  0  0  0  0
    0.1668  -26.2861   20.1931 C   0  0  0  0  0  0  0  0  0  0  0  0
   -0.7747  -27.0456   20.7812 C   0  0  0  0  0  0  0  0  0  0  0  0
   -0.8385  -28.4059   20.5316 N   0  0  0  0  0  0  0  0  0  0  0  0
   -1.6739  -29.3013   21.1144 N   0  0  0  0  0  0  0  0  0  0  0  0
   -1.2743  -30.4805   20.6438 C   0  0  0  0  0  0  0  0  0  0  0  0
   -0.2471  -30.3644   19.6902 C   0  0  0  0  0  0  0  0  0  0  0  0
    0.0466  -29.0169   19.6454 C   0  0  0  0  0  0  0  0  0  0  0  0
    1.0409  -28.1872   18.9926 C   0  0  0  0  0  0  0  0  0  0  0  0
    5.3059  -21.3296   16.0155 C   0  0  0  0  0  0  0  0  0  0  0  0
    5.7027  -20.0721   15.7532 N   0  0  0  0  0  0  0  0  0  0  0  0
    5.3986  -17.5161   15.6218 H   0  0  0  0  0  0  0  0  0  0  0  0
    4.4238  -18.0323   14.2082 H   0  0  0  0  0  0  0  0  0  0  0  0
    3.6183  -17.5348   15.7386 H   0  0  0  0  0  0  0  0  0  0  0  0
    2.4703  -19.7374   16.1740 H   0  0  0  0  0  0  0  0  0  0  0  0
    2.0153  -22.3954   16.5047 H   0  0  0  0  0  0  0  0  0  0  0  0
    2.8364  -24.4531   15.7229 H   0  0  0  0  0  0  0  0  0  0  0  0
    4.1312  -24.1313   17.8851 H   0  0  0  0  0  0  0  0  0  0  0  0
    3.0665  -23.0121   18.7769 H   0  0  0  0  0  0  0  0  0  0  0  0
    1.2134  -24.2707   18.2643 H   0  0  0  0  0  0  0  0  0  0  0  0
    3.1014  -26.5107   18.3406 H   0  0  0  0  0  0  0  0  0  0  0  0
    2.7818  -25.5203   19.7618 H   0  0  0  0  0  0  0  0  0  0  0  0
    0.2784  -25.2364   20.4271 H   0  0  0  0  0  0  0  0  0  0  0  0
   -1.4928  -26.6644   21.4929 H   0  0  0  0  0  0  0  0  0  0  0  0
   -1.7398  -31.3782   21.0227 H   0  0  0  0  0  0  0  0  0  0  0  0
    0.2524  -31.1595   19.1555 H   0  0  0  0  0  0  0  0  0  0  0  0
    1.7717  -28.6722   18.3519 H   0  0  0  0  0  0  0  0  0  0  0  0
    6.0335  -22.1284   15.9527 H   0  0  0  0  0  0  0  0  0  0  0  0
  1  2  1  0
  2  3  1  0
  3  4  2  0
  4  5  1  0
  5  6  1  0
  5  7  1  0
  7  8  1  0
  8  9  1  0
  9 10  1  0
 10 11  1  0
 11 12  2  0
 12 13  1  0
 13 14  1  0
 14 15  2  0
 15 16  1  0
 16 17  2  0
 17 18  1  0
  4 19  1  0
 19 20  2  0
 20  2  1  0
 18 10  2  0
 17 13  1  0
  1 21  1  0
  1 22  1  0
  1 23  1  0
  3 24  1  0
  5 25  1  0
  6 26  1  0
  7 27  1  0
  7 28  1  0
  8 29  1  0
  9 30  1  0
  9 31  1  0
 11 32  1  0
 12 33  1  0
 15 34  1  0
 16 35  1  0
 18 36  1  0
 19 37  1  0
M  END
>  <Energy>  (964) 
76.681924422182163

>  <compound_id>  (964) 
46883

>  <target_id>  (964) 
1

>  <reference_id>  (964) 
68

>  <inspiration_ids>  (964) 
[122, 68]

>  <energy_score>  (964) 
-19.896798552069868

>  <distance_score>  (964) 
15.859896144318927

>  <path>  (964) 
/opt/xchem-fragalysis-2/maxwin/BulkDock/SCRATCH/511023/C46883-P68/C46883-P68.minimised.mol

>  <scratch_subdir>  (964) 
/opt/xchem-fragalysis-2/maxwin/BulkDock/SCRATCH/511023/C46883-P68

>  <fragmenstein_runtime>  (964) 
15.222732782363892

>  <fragmenstein_outcome>  (964) 
too moved

>  <fragmenstein_mode>  (964) 
expansion

>  <fragmenstein_error>  (964) 


$$$$
C46896-P106
     RDKit          3D

 33 35  0  0  0  0  0  0  0  0999 V2000
    6.6099  -15.5031    9.4934 O   0  0  0  0  0  0  0  0  0  0  0  0
    6.8632  -16.1129   10.4987 C   0  0  0  0  0  0  0  0  0  0  0  0
    7.8621  -15.8599   11.5415 N   0  0  0  0  0  0  0  0  0  0  0  0
    8.7533  -14.7852   11.7264 C   0  0  0  0  0  0  0  0  0  0  0  0
    8.9692  -13.6119   10.7906 C   0  0  0  0  0  0  0  0  0  0  0  0
    9.5188  -12.4553   11.0662 N   0  0  0  0  0  0  0  0  0  0  0  0
    9.9481  -12.2786   12.3499 C   0  0  0  0  0  0  0  0  0  0  0  0
   10.3658  -11.1960   12.9750 N   0  0  0  0  0  0  0  0  0  0  0  0
   10.6275  -11.5799   14.2689 C   0  0  0  0  0  0  0  0  0  0  0  0
   10.4600  -12.9307   14.4199 C   0  0  0  0  0  0  0  0  0  0  0  0
    9.9670  -13.3607   13.2162 N   0  0  0  0  0  0  0  0  0  0  0  0
    9.4253  -14.6005   12.8856 C   0  0  0  0  0  0  0  0  0  0  0  0
    5.9911  -17.5100   10.7945 C   0  0  0  0  0  0  0  0  0  0  0  0
    4.8213  -17.6954    9.7780 C   0  0  0  0  0  0  0  0  0  0  0  0
    3.8778  -18.8765   10.0632 C   0  0  0  0  0  0  0  0  0  0  0  0
    3.3838  -18.8563   11.4989 C   0  0  0  0  0  0  0  0  0  0  0  0
    4.5794  -18.7438   12.4413 C   0  0  0  0  0  0  0  0  0  0  0  0
    5.4581  -17.5773   12.1863 N   0  0  0  0  0  0  0  0  0  0  0  0
    7.7374  -16.5401   12.2955 H   0  0  0  0  0  0  0  0  0  0  0  0
    8.6269  -13.7841    9.7557 H   0  0  0  0  0  0  0  0  0  0  0  0
   10.9273  -10.8755   15.0339 H   0  0  0  0  0  0  0  0  0  0  0  0
   10.5684  -13.5828   15.2727 H   0  0  0  0  0  0  0  0  0  0  0  0
    9.4370  -15.3366   13.6784 H   0  0  0  0  0  0  0  0  0  0  0  0
    6.7097  -18.3288   10.6608 H   0  0  0  0  0  0  0  0  0  0  0  0
    4.2251  -16.7783    9.7273 H   0  0  0  0  0  0  0  0  0  0  0  0
    5.2478  -17.8228    8.7750 H   0  0  0  0  0  0  0  0  0  0  0  0
    4.4164  -19.8134    9.8750 H   0  0  0  0  0  0  0  0  0  0  0  0
    3.0292  -18.8501    9.3708 H   0  0  0  0  0  0  0  0  0  0  0  0
    2.8198  -19.7700   11.7157 H   0  0  0  0  0  0  0  0  0  0  0  0
    2.7021  -18.0136   11.6456 H   0  0  0  0  0  0  0  0  0  0  0  0
    4.2229  -18.6803   13.4751 H   0  0  0  0  0  0  0  0  0  0  0  0
    5.1877  -19.6546   12.3816 H   0  0  0  0  0  0  0  0  0  0  0  0
    4.9122  -16.7375   12.3594 H   0  0  0  0  0  0  0  0  0  0  0  0
  1  2  2  0
  2  3  1  0
  3  4  1  0
  4  5  1  0
  5  6  2  0
  6  7  1  0
  7  8  2  0
  8  9  1  0
  9 10  2  0
 10 11  1  0
 11 12  1  0
  2 13  1  0
 13 14  1  0
 14 15  1  0
 15 16  1  0
 16 17  1  0
 17 18  1  0
 12  4  2  0
 18 13  1  0
 11  7  1  0
  3 19  1  0
  5 20  1  0
  9 21  1  0
 10 22  1  0
 12 23  1  0
 13 24  1  0
 14 25  1  0
 14 26  1  0
 15 27  1  0
 15 28  1  0
 16 29  1  0
 16 30  1  0
 17 31  1  0
 17 32  1  0
 18 33  1  0
M  END
>  <Energy>  (965) 
71.745863699197699

>  <compound_id>  (965) 
46896

>  <target_id>  (965) 
1

>  <reference_id>  (965) 
106

>  <inspiration_ids>  (965) 
[106, 9]

>  <energy_score>  (965) 
-47.83599991087715

>  <distance_score>  (965) 
16.106264276732237

>  <path>  (965) 
/opt/xchem-fragalysis-2/maxwin/BulkDock/SCRATCH/511023/C46896-P106/C46896-P106.minimised.mol

>  <scratch_subdir>  (965) 
/opt/xchem-fragalysis-2/maxwin/BulkDock/SCRATCH/511023/C46896-P106

>  <fragmenstein_runtime>  (965) 
10.970393180847168

>  <fragmenstein_outcome>  (965) 
too moved

>  <fragmenstein_mode>  (965) 
expansion

>  <fragmenstein_error>  (965) 


$$$$
C46896-P9
     RDKit          3D

 33 35  0  0  0  0  0  0  0  0999 V2000
    4.5187  -15.9858   16.2024 O   0  0  0  0  0  0  0  0  0  0  0  0
    3.8385  -16.2240   17.1788 C   0  0  0  0  0  0  0  0  0  0  0  0
    3.5920  -15.3238   18.5092 N   0  0  0  0  0  0  0  0  0  0  0  0
    4.3029  -13.8194   19.0172 C   0  0  0  0  0  0  0  0  0  0  0  0
    4.1344  -13.4176   20.7267 C   0  0  0  0  0  0  0  0  0  0  0  0
    4.7589  -12.6580   21.6162 N   0  0  0  0  0  0  0  0  0  0  0  0
    5.7748  -11.9059   21.1282 C   0  0  0  0  0  0  0  0  0  0  0  0
    6.3992  -10.8377   21.5819 N   0  0  0  0  0  0  0  0  0  0  0  0
    7.2600  -10.4704   20.5811 C   0  0  0  0  0  0  0  0  0  0  0  0
    7.1512  -11.3317   19.5145 C   0  0  0  0  0  0  0  0  0  0  0  0
    6.1668  -12.2375   19.8629 N   0  0  0  0  0  0  0  0  0  0  0  0
    5.6237  -13.4527   19.3134 C   0  0  0  0  0  0  0  0  0  0  0  0
    3.1721  -17.9176   17.0578 C   0  0  0  0  0  0  0  0  0  0  0  0
    2.2874  -19.0642   17.6945 C   0  0  0  0  0  0  0  0  0  0  0  0
    1.4735  -20.1355   16.8929 C   0  0  0  0  0  0  0  0  0  0  0  0
    1.8110  -20.2509   15.4256 C   0  0  0  0  0  0  0  0  0  0  0  0
    3.1763  -19.6463   15.1822 C   0  0  0  0  0  0  0  0  0  0  0  0
    3.2414  -18.2456   15.5912 N   0  0  0  0  0  0  0  0  0  0  0  0
    3.0403  -15.8432   19.1680 H   0  0  0  0  0  0  0  0  0  0  0  0
    3.4055  -14.0610   21.1887 H   0  0  0  0  0  0  0  0  0  0  0  0
    7.9132   -9.6137   20.6818 H   0  0  0  0  0  0  0  0  0  0  0  0
    7.6681  -11.3302   18.5688 H   0  0  0  0  0  0  0  0  0  0  0  0
    6.0972  -14.1809   19.9810 H   0  0  0  0  0  0  0  0  0  0  0  0
    4.1502  -18.3165   17.3931 H   0  0  0  0  0  0  0  0  0  0  0  0
    1.5613  -18.6515   18.3646 H   0  0  0  0  0  0  0  0  0  0  0  0
    2.9680  -19.6979   18.2789 H   0  0  0  0  0  0  0  0  0  0  0  0
    1.6522  -21.1090   17.3709 H   0  0  0  0  0  0  0  0  0  0  0  0
    0.3948  -19.9750   17.0135 H   0  0  0  0  0  0  0  0  0  0  0  0
    1.7992  -21.3022   15.1160 H   0  0  0  0  0  0  0  0  0  0  0  0
    1.0570  -19.7458   14.8112 H   0  0  0  0  0  0  0  0  0  0  0  0
    3.9590  -20.2227   15.6900 H   0  0  0  0  0  0  0  0  0  0  0  0
    3.4033  -19.7009   14.1115 H   0  0  0  0  0  0  0  0  0  0  0  0
    2.5028  -17.7375   15.1020 H   0  0  0  0  0  0  0  0  0  0  0  0
  1  2  2  0
  2  3  1  0
  3  4  1  0
  4  5  1  0
  5  6  2  0
  6  7  1  0
  7  8  2  0
  8  9  1  0
  9 10  2  0
 10 11  1  0
 11 12  1  0
  2 13  1  0
 13 14  1  0
 14 15  1  0
 15 16  1  0
 16 17  1  0
 17 18  1  0
 12  4  2  0
 18 13  1  0
 11  7  1  0
  3 19  1  0
  5 20  1  0
  9 21  1  0
 10 22  1  0
 12 23  1  0
 13 24  1  0
 14 25  1  0
 14 26  1  0
 15 27  1  0
 15 28  1  0
 16 29  1  0
 16 30  1  0
 17 31  1  0
 17 32  1  0
 18 33  1  0
M  END
>  <Energy>  (966) 
322.44477734431513

>  <compound_id>  (966) 
46896

>  <target_id>  (966) 
1

>  <reference_id>  (966) 
9

>  <inspiration_ids>  (966) 
[106, 9]

>  <energy_score>  (966) 
202.862913734242

>  <distance_score>  (966) 
15.48729143456486

>  <path>  (966) 
/opt/xchem-fragalysis-2/maxwin/BulkDock/SCRATCH/511023/C46896-P9/C46896-P9.minimised.mol

>  <scratch_subdir>  (966) 
/opt/xchem-fragalysis-2/maxwin/BulkDock/SCRATCH/511023/C46896-P9

>  <fragmenstein_runtime>  (966) 
8.441299676895142

>  <fragmenstein_outcome>  (966) 
too moved

>  <fragmenstein_mode>  (966) 
expansion

>  <fragmenstein_error>  (966) 


$$$$
C26012-P106
     RDKit          3D

 37 40  0  0  0  0  0  0  0  0999 V2000
    8.7617  -16.0930   15.1579 O   0  0  0  0  0  0  0  0  0  0  0  0
    8.2569  -15.6088   14.1877 C   0  0  0  0  0  0  0  0  0  0  0  0
    8.5187  -14.3471   13.5160 N   0  0  0  0  0  0  0  0  0  0  0  0
    9.4792  -13.3861   13.7428 C   0  0  0  0  0  0  0  0  0  0  0  0
    9.7882  -12.3333   12.7020 C   0  0  0  0  0  0  0  0  0  0  0  0
   10.8281  -11.5554   12.6616 N   0  0  0  0  0  0  0  0  0  0  0  0
   11.7082  -11.7036   13.6950 C   0  0  0  0  0  0  0  0  0  0  0  0
   12.9389  -11.2470   13.8175 N   0  0  0  0  0  0  0  0  0  0  0  0
   13.3264  -11.5528   15.0922 C   0  0  0  0  0  0  0  0  0  0  0  0
   12.3418  -12.2450   15.7544 C   0  0  0  0  0  0  0  0  0  0  0  0
   11.3588  -12.4374   14.8205 N   0  0  0  0  0  0  0  0  0  0  0  0
   10.2644  -13.2950   14.8313 C   0  0  0  0  0  0  0  0  0  0  0  0
    7.1582  -16.3972   13.5369 C   0  0  0  0  0  0  0  0  0  0  0  0
    6.6482  -16.3984   12.2486 C   0  0  0  0  0  0  0  0  0  0  0  0
    5.6692  -17.4085   12.0228 C   0  0  0  0  0  0  0  0  0  0  0  0
    5.3798  -18.1337   13.1574 C   0  0  0  0  0  0  0  0  0  0  0  0
    4.4036  -19.2613   13.3319 C   0  0  0  0  0  0  0  0  0  0  0  0
    4.9589  -20.6111   12.8811 C   0  0  0  0  0  0  0  0  0  0  0  0
    3.7786  -21.3258   12.2296 C   0  0  0  0  0  0  0  0  0  0  0  0
    2.5944  -20.4004   12.4409 C   0  0  0  0  0  0  0  0  0  0  0  0
    3.2125  -19.0780   12.4941 N   0  0  0  0  0  0  0  0  0  0  0  0
    6.3131  -17.5944   14.4789 S   0  0  0  0  0  0  0  0  0  0  0  0
    7.9596  -14.2986   12.6745 H   0  0  0  0  0  0  0  0  0  0  0  0
    9.0497  -12.2552   11.8863 H   0  0  0  0  0  0  0  0  0  0  0  0
   14.3048  -11.2753   15.4583 H   0  0  0  0  0  0  0  0  0  0  0  0
   12.2921  -12.6705   16.7455 H   0  0  0  0  0  0  0  0  0  0  0  0
   10.1674  -13.9418   15.6946 H   0  0  0  0  0  0  0  0  0  0  0  0
    7.0034  -15.7570   11.4515 H   0  0  0  0  0  0  0  0  0  0  0  0
    5.1822  -17.5957   11.0711 H   0  0  0  0  0  0  0  0  0  0  0  0
    4.0860  -19.3330   14.3815 H   0  0  0  0  0  0  0  0  0  0  0  0
    5.3359  -21.1809   13.7380 H   0  0  0  0  0  0  0  0  0  0  0  0
    5.7809  -20.5198   12.1607 H   0  0  0  0  0  0  0  0  0  0  0  0
    3.9751  -21.4599   11.1591 H   0  0  0  0  0  0  0  0  0  0  0  0
    3.6068  -22.3145   12.6663 H   0  0  0  0  0  0  0  0  0  0  0  0
    2.0891  -20.6270   13.3871 H   0  0  0  0  0  0  0  0  0  0  0  0
    1.8634  -20.4739   11.6311 H   0  0  0  0  0  0  0  0  0  0  0  0
    2.5880  -18.4209   12.9826 H   0  0  0  0  0  0  0  0  0  0  0  0
  1  2  2  0
  2  3  1  0
  3  4  1  0
  4  5  1  0
  5  6  2  0
  6  7  1  0
  7  8  2  0
  8  9  1  0
  9 10  2  0
 10 11  1  0
 11 12  1  0
  2 13  1  0
 13 14  2  0
 14 15  1  0
 15 16  2  0
 16 17  1  0
 17 18  1  0
 18 19  1  0
 19 20  1  0
 20 21  1  0
 16 22  1  0
 12  4  2  0
 22 13  1  0
 11  7  1  0
 21 17  1  0
  3 23  1  0
  5 24  1  0
  9 25  1  0
 10 26  1  0
 12 27  1  0
 14 28  1  0
 15 29  1  0
 17 30  1  0
 18 31  1  0
 18 32  1  0
 19 33  1  0
 19 34  1  0
 20 35  1  0
 20 36  1  0
 21 37  1  0
M  END
>  <Energy>  (967) 
44.908789889741001

>  <compound_id>  (967) 
26012

>  <target_id>  (967) 
1

>  <reference_id>  (967) 
106

>  <inspiration_ids>  (967) 
[106, 9]

>  <energy_score>  (967) 
-40.29447227040146

>  <distance_score>  (967) 
16.842034653279843

>  <path>  (967) 
/opt/xchem-fragalysis-2/maxwin/BulkDock/SCRATCH/511023/C26012-P106/C26012-P106.minimised.mol

>  <scratch_subdir>  (967) 
/opt/xchem-fragalysis-2/maxwin/BulkDock/SCRATCH/511023/C26012-P106

>  <fragmenstein_runtime>  (967) 
20.37679433822632

>  <fragmenstein_outcome>  (967) 
too moved

>  <fragmenstein_mode>  (967) 
expansion

>  <fragmenstein_error>  (967) 


$$$$
C26012-P9
     RDKit          3D

 37 40  0  0  0  0  0  0  0  0999 V2000
    2.7099  -11.6290    9.5518 O   0  0  0  0  0  0  0  0  0  0  0  0
    1.7768  -10.9428    9.8562 C   0  0  0  0  0  0  0  0  0  0  0  0
    1.7301   -9.6495   10.5033 N   0  0  0  0  0  0  0  0  0  0  0  0
    2.7309   -8.8724   11.0404 C   0  0  0  0  0  0  0  0  0  0  0  0
    2.3886   -7.6432   11.8423 C   0  0  0  0  0  0  0  0  0  0  0  0
    3.0424   -7.1868   12.8658 N   0  0  0  0  0  0  0  0  0  0  0  0
    4.1389   -7.9246   13.2147 C   0  0  0  0  0  0  0  0  0  0  0  0
    4.7677   -7.9824   14.3710 N   0  0  0  0  0  0  0  0  0  0  0  0
    5.7954   -8.8587   14.1830 C   0  0  0  0  0  0  0  0  0  0  0  0
    5.8376   -9.3090   12.8836 C   0  0  0  0  0  0  0  0  0  0  0  0
    4.7076   -8.8045   12.3055 N   0  0  0  0  0  0  0  0  0  0  0  0
    4.0140   -9.2548   11.1827 C   0  0  0  0  0  0  0  0  0  0  0  0
    0.4185  -11.5273    9.6366 C   0  0  0  0  0  0  0  0  0  0  0  0
    0.1303  -12.8626    9.3651 C   0  0  0  0  0  0  0  0  0  0  0  0
   -1.2498  -13.1015    9.1216 C   0  0  0  0  0  0  0  0  0  0  0  0
   -2.0120  -11.9589    9.2549 C   0  0  0  0  0  0  0  0  0  0  0  0
   -3.4990  -11.8307    9.0398 C   0  0  0  0  0  0  0  0  0  0  0  0
   -3.8544  -11.1119    7.7364 C   0  0  0  0  0  0  0  0  0  0  0  0
   -5.0199  -10.2190    8.1178 C   0  0  0  0  0  0  0  0  0  0  0  0
   -4.7071   -9.8607    9.5544 C   0  0  0  0  0  0  0  0  0  0  0  0
   -4.1925  -11.1053   10.1203 N   0  0  0  0  0  0  0  0  0  0  0  0
   -1.0434  -10.6408    9.7694 S   0  0  0  0  0  0  0  0  0  0  0  0
    0.7607   -9.4027   10.6798 H   0  0  0  0  0  0  0  0  0  0  0  0
    1.4717   -7.1192   11.5241 H   0  0  0  0  0  0  0  0  0  0  0  0
    6.4540   -9.1340   14.9945 H   0  0  0  0  0  0  0  0  0  0  0  0
    6.4805  -10.0205   12.3894 H   0  0  0  0  0  0  0  0  0  0  0  0
    4.4401  -10.1139   10.6794 H   0  0  0  0  0  0  0  0  0  0  0  0
    0.9005  -13.6231    9.2989 H   0  0  0  0  0  0  0  0  0  0  0  0
   -1.6627  -14.0686    8.8599 H   0  0  0  0  0  0  0  0  0  0  0  0
   -3.9319  -12.8390    9.0137 H   0  0  0  0  0  0  0  0  0  0  0  0
   -4.1321  -11.8125    6.9419 H   0  0  0  0  0  0  0  0  0  0  0  0
   -3.0281  -10.4950    7.3628 H   0  0  0  0  0  0  0  0  0  0  0  0
   -5.0985   -9.3398    7.4720 H   0  0  0  0  0  0  0  0  0  0  0  0
   -5.9613  -10.7785    8.0557 H   0  0  0  0  0  0  0  0  0  0  0  0
   -5.5919   -9.5124   10.0944 H   0  0  0  0  0  0  0  0  0  0  0  0
   -3.9438   -9.0753    9.5982 H   0  0  0  0  0  0  0  0  0  0  0  0
   -3.5284  -10.9127   10.8716 H   0  0  0  0  0  0  0  0  0  0  0  0
  1  2  2  0
  2  3  1  0
  3  4  1  0
  4  5  1  0
  5  6  2  0
  6  7  1  0
  7  8  2  0
  8  9  1  0
  9 10  2  0
 10 11  1  0
 11 12  1  0
  2 13  1  0
 13 14  2  0
 14 15  1  0
 15 16  2  0
 16 17  1  0
 17 18  1  0
 18 19  1  0
 19 20  1  0
 20 21  1  0
 16 22  1  0
 12  4  2  0
 22 13  1  0
 11  7  1  0
 21 17  1  0
  3 23  1  0
  5 24  1  0
  9 25  1  0
 10 26  1  0
 12 27  1  0
 14 28  1  0
 15 29  1  0
 17 30  1  0
 18 31  1  0
 18 32  1  0
 19 33  1  0
 19 34  1  0
 20 35  1  0
 20 36  1  0
 21 37  1  0
M  END
>  <Energy>  (968) 
51.384212084137225

>  <compound_id>  (968) 
26012

>  <target_id>  (968) 
1

>  <reference_id>  (968) 
9

>  <inspiration_ids>  (968) 
[106, 9]

>  <energy_score>  (968) 
-33.81905007600449

>  <distance_score>  (968) 
16.647463855069923

>  <path>  (968) 
/opt/xchem-fragalysis-2/maxwin/BulkDock/SCRATCH/511023/C26012-P9/C26012-P9.minimised.mol

>  <scratch_subdir>  (968) 
/opt/xchem-fragalysis-2/maxwin/BulkDock/SCRATCH/511023/C26012-P9

>  <fragmenstein_runtime>  (968) 
17.561819791793823

>  <fragmenstein_outcome>  (968) 
too moved

>  <fragmenstein_mode>  (968) 
expansion

>  <fragmenstein_error>  (968) 


$$$$
C26013-P106
     RDKit          3D

 36 39  0  0  0  0  0  0  0  0999 V2000
    1.8969  -10.5289    9.3289 O   0  0  0  0  0  0  0  0  0  0  0  0
    1.7078  -10.7955   10.4649 C   0  0  0  0  0  0  0  0  0  0  0  0
    2.4736  -10.3060   11.7841 N   0  0  0  0  0  0  0  0  0  0  0  0
    3.6797   -9.4701   11.9360 C   0  0  0  0  0  0  0  0  0  0  0  0
    4.6084   -8.7960   10.9134 C   0  0  0  0  0  0  0  0  0  0  0  0
    5.8268   -8.3518   11.0797 N   0  0  0  0  0  0  0  0  0  0  0  0
    6.3406   -8.4469   12.3328 C   0  0  0  0  0  0  0  0  0  0  0  0
    7.5579   -8.2684   12.7526 N   0  0  0  0  0  0  0  0  0  0  0  0
    7.5403   -8.6564   14.0556 C   0  0  0  0  0  0  0  0  0  0  0  0
    6.2623   -8.8004   14.5139 C   0  0  0  0  0  0  0  0  0  0  0  0
    5.5193   -8.7725   13.3770 N   0  0  0  0  0  0  0  0  0  0  0  0
    4.2342   -9.2623   13.1756 C   0  0  0  0  0  0  0  0  0  0  0  0
    0.4936  -11.9562   10.7048 C   0  0  0  0  0  0  0  0  0  0  0  0
    0.4584  -13.1127   11.5662 N   0  0  0  0  0  0  0  0  0  0  0  0
   -0.3728  -13.9485   11.0004 C   0  0  0  0  0  0  0  0  0  0  0  0
   -1.1040  -13.4298    9.9951 O   0  0  0  0  0  0  0  0  0  0  0  0
   -0.6456  -12.1534    9.8887 C   0  0  0  0  0  0  0  0  0  0  0  0
   -1.2659  -11.2751    8.8505 C   0  0  0  0  0  0  0  0  0  0  0  0
   -1.1960  -11.8472    7.4434 C   0  0  0  0  0  0  0  0  0  0  0  0
   -2.4920  -12.6249    7.2666 C   0  0  0  0  0  0  0  0  0  0  0  0
   -3.4001  -12.1708    8.3993 C   0  0  0  0  0  0  0  0  0  0  0  0
   -2.7073  -11.0732    9.0741 N   0  0  0  0  0  0  0  0  0  0  0  0
    2.1086  -10.7882   12.5836 H   0  0  0  0  0  0  0  0  0  0  0  0
    4.1742   -8.7344    9.9003 H   0  0  0  0  0  0  0  0  0  0  0  0
    8.4518   -8.8199   14.6079 H   0  0  0  0  0  0  0  0  0  0  0  0
    5.8481   -9.1006   15.4649 H   0  0  0  0  0  0  0  0  0  0  0  0
    3.7647   -9.6452   14.0714 H   0  0  0  0  0  0  0  0  0  0  0  0
   -0.5610  -14.9770   11.2562 H   0  0  0  0  0  0  0  0  0  0  0  0
   -0.7721  -10.2976    8.8782 H   0  0  0  0  0  0  0  0  0  0  0  0
   -1.1741  -11.0292    6.7119 H   0  0  0  0  0  0  0  0  0  0  0  0
   -0.3166  -12.4749    7.2646 H   0  0  0  0  0  0  0  0  0  0  0  0
   -2.9339  -12.4216    6.2854 H   0  0  0  0  0  0  0  0  0  0  0  0
   -2.3077  -13.7030    7.3339 H   0  0  0  0  0  0  0  0  0  0  0  0
   -3.5845  -12.9978    9.0945 H   0  0  0  0  0  0  0  0  0  0  0  0
   -4.3719  -11.8357    8.0240 H   0  0  0  0  0  0  0  0  0  0  0  0
   -2.8957  -11.1067   10.0769 H   0  0  0  0  0  0  0  0  0  0  0  0
  1  2  2  0
  2  3  1  0
  3  4  1  0
  4  5  1  0
  5  6  2  0
  6  7  1  0
  7  8  2  0
  8  9  1  0
  9 10  2  0
 10 11  1  0
 11 12  1  0
  2 13  1  0
 13 14  1  0
 14 15  2  0
 15 16  1  0
 16 17  1  0
 17 18  1  0
 18 19  1  0
 19 20  1  0
 20 21  1  0
 21 22  1  0
 12  4  2  0
 17 13  2  0
 22 18  1  0
 11  7  1  0
  3 23  1  0
  5 24  1  0
  9 25  1  0
 10 26  1  0
 12 27  1  0
 15 28  1  0
 18 29  1  0
 19 30  1  0
 19 31  1  0
 20 32  1  0
 20 33  1  0
 21 34  1  0
 21 35  1  0
 22 36  1  0
M  END
>  <Energy>  (969) 
111.77770857563264

>  <compound_id>  (969) 
26013

>  <target_id>  (969) 
1

>  <reference_id>  (969) 
106

>  <inspiration_ids>  (969) 
[106, 9]

>  <energy_score>  (969) 
17.107964208005455

>  <distance_score>  (969) 
16.101173885473354

>  <path>  (969) 
/opt/xchem-fragalysis-2/maxwin/BulkDock/SCRATCH/511023/C26013-P106/C26013-P106.minimised.mol

>  <scratch_subdir>  (969) 
/opt/xchem-fragalysis-2/maxwin/BulkDock/SCRATCH/511023/C26013-P106

>  <fragmenstein_runtime>  (969) 
8.88670039176941

>  <fragmenstein_outcome>  (969) 
too moved

>  <fragmenstein_mode>  (969) 
expansion

>  <fragmenstein_error>  (969) 


$$$$
C26013-P9
     RDKit          3D

 36 39  0  0  0  0  0  0  0  0999 V2000
    0.6406   -7.5078   16.5643 O   0  0  0  0  0  0  0  0  0  0  0  0
    0.5459   -7.4921   17.7449 C   0  0  0  0  0  0  0  0  0  0  0  0
    1.5515   -6.8951   18.8667 N   0  0  0  0  0  0  0  0  0  0  0  0
    2.9041   -6.2965   18.7260 C   0  0  0  0  0  0  0  0  0  0  0  0
    3.9401   -6.3129   17.5428 C   0  0  0  0  0  0  0  0  0  0  0  0
    5.2338   -6.0566   17.5726 N   0  0  0  0  0  0  0  0  0  0  0  0
    5.7393   -5.7284   18.7937 C   0  0  0  0  0  0  0  0  0  0  0  0
    6.9462   -5.8085   19.3088 N   0  0  0  0  0  0  0  0  0  0  0  0
    6.9068   -5.2486   20.5585 C   0  0  0  0  0  0  0  0  0  0  0  0
    5.6380   -4.8270   20.8175 C   0  0  0  0  0  0  0  0  0  0  0  0
    4.8824   -5.3216   19.7833 N   0  0  0  0  0  0  0  0  0  0  0  0
    3.5182   -5.6374   19.7539 C   0  0  0  0  0  0  0  0  0  0  0  0
   -0.9020   -8.2194   18.2601 C   0  0  0  0  0  0  0  0  0  0  0  0
   -1.8092   -9.0341   17.3793 N   0  0  0  0  0  0  0  0  0  0  0  0
   -2.8512   -9.3217   18.1103 C   0  0  0  0  0  0  0  0  0  0  0  0
   -2.7608   -8.9210   19.3957 O   0  0  0  0  0  0  0  0  0  0  0  0
   -1.5538   -8.2950   19.4992 C   0  0  0  0  0  0  0  0  0  0  0  0
   -1.2427   -7.6711   20.8227 C   0  0  0  0  0  0  0  0  0  0  0  0
   -0.3639   -8.5382   21.7234 C   0  0  0  0  0  0  0  0  0  0  0  0
   -0.9545   -8.3531   23.1086 C   0  0  0  0  0  0  0  0  0  0  0  0
   -2.4285   -8.1790   22.8165 C   0  0  0  0  0  0  0  0  0  0  0  0
   -2.4427   -7.3487   21.6164 N   0  0  0  0  0  0  0  0  0  0  0  0
    1.1293   -6.9746   19.7771 H   0  0  0  0  0  0  0  0  0  0  0  0
    3.4928   -6.6130   16.5786 H   0  0  0  0  0  0  0  0  0  0  0  0
    7.7875   -5.1655   21.1841 H   0  0  0  0  0  0  0  0  0  0  0  0
    5.1929   -4.3541   21.6799 H   0  0  0  0  0  0  0  0  0  0  0  0
    2.9921   -5.4447   20.6813 H   0  0  0  0  0  0  0  0  0  0  0  0
   -3.7483   -9.8543   17.8273 H   0  0  0  0  0  0  0  0  0  0  0  0
   -0.7446   -6.7119   20.6448 H   0  0  0  0  0  0  0  0  0  0  0  0
   -0.4134   -9.5978   21.4556 H   0  0  0  0  0  0  0  0  0  0  0  0
    0.6882   -8.2371   21.6955 H   0  0  0  0  0  0  0  0  0  0  0  0
   -0.5435   -7.4511   23.5782 H   0  0  0  0  0  0  0  0  0  0  0  0
   -0.7528   -9.2058   23.7632 H   0  0  0  0  0  0  0  0  0  0  0  0
   -2.9003   -9.1472   22.6142 H   0  0  0  0  0  0  0  0  0  0  0  0
   -2.9598   -7.6996   23.6432 H   0  0  0  0  0  0  0  0  0  0  0  0
   -3.2879   -7.5202   21.0695 H   0  0  0  0  0  0  0  0  0  0  0  0
  1  2  2  0
  2  3  1  0
  3  4  1  0
  4  5  1  0
  5  6  2  0
  6  7  1  0
  7  8  2  0
  8  9  1  0
  9 10  2  0
 10 11  1  0
 11 12  1  0
  2 13  1  0
 13 14  1  0
 14 15  2  0
 15 16  1  0
 16 17  1  0
 17 18  1  0
 18 19  1  0
 19 20  1  0
 20 21  1  0
 21 22  1  0
 12  4  2  0
 17 13  2  0
 22 18  1  0
 11  7  1  0
  3 23  1  0
  5 24  1  0
  9 25  1  0
 10 26  1  0
 12 27  1  0
 15 28  1  0
 18 29  1  0
 19 30  1  0
 19 31  1  0
 20 32  1  0
 20 33  1  0
 21 34  1  0
 21 35  1  0
 22 36  1  0
M  END
>  <Energy>  (970) 
125.73007918974767

>  <compound_id>  (970) 
26013

>  <target_id>  (970) 
1

>  <reference_id>  (970) 
9

>  <inspiration_ids>  (970) 
[106, 9]

>  <energy_score>  (970) 
31.06033482212024

>  <distance_score>  (970) 
15.669307082638475

>  <path>  (970) 
/opt/xchem-fragalysis-2/maxwin/BulkDock/SCRATCH/511023/C26013-P9/C26013-P9.minimised.mol

>  <scratch_subdir>  (970) 
/opt/xchem-fragalysis-2/maxwin/BulkDock/SCRATCH/511023/C26013-P9

>  <fragmenstein_runtime>  (970) 
11.75849461555481

>  <fragmenstein_outcome>  (970) 
too moved

>  <fragmenstein_mode>  (970) 
expansion

>  <fragmenstein_error>  (970) 


$$$$
C46897-P106
     RDKit          3D

 40 43  0  0  0  0  0  0  0  0999 V2000
    1.5899  -13.7138   18.0789 O   0  0  0  0  0  0  0  0  0  0  0  0
    1.5659  -13.5369   16.8978 C   0  0  0  0  0  0  0  0  0  0  0  0
    2.8984  -11.9220   16.3874 N   0  0  0  0  0  0  0  0  0  0  0  0
    3.9837  -10.5972   17.4084 C   0  0  0  0  0  0  0  0  0  0  0  0
    6.2346  -10.3685   17.9509 C   0  0  0  0  0  0  0  0  0  0  0  0
    7.4516   -9.9818   16.4613 N   0  0  0  0  0  0  0  0  0  0  0  0
    6.6703   -8.0657   15.7104 C   0  0  0  0  0  0  0  0  0  0  0  0
    6.8554   -6.6628   15.8257 N   0  0  0  0  0  0  0  0  0  0  0  0
    6.3066   -6.1443   17.0078 C   0  0  0  0  0  0  0  0  0  0  0  0
    5.0176   -6.3933   17.2384 C   0  0  0  0  0  0  0  0  0  0  0  0
    5.5384   -7.6793   17.3287 N   0  0  0  0  0  0  0  0  0  0  0  0
    4.4152   -9.0593   18.1228 C   0  0  0  0  0  0  0  0  0  0  0  0
    0.1931  -14.5475   16.1836 C   0  0  0  0  0  0  0  0  0  0  0  0
   -0.7298  -13.5227   17.3361 C   0  0  0  0  0  0  0  0  0  0  0  0
   -2.0425  -13.4367   17.3917 N   0  0  0  0  0  0  0  0  0  0  0  0
   -2.6930  -14.2159   16.6306 N   0  0  0  0  0  0  0  0  0  0  0  0
   -1.8311  -14.8794   15.8853 C   0  0  0  0  0  0  0  0  0  0  0  0
   -3.1870  -16.2118   15.1309 C   0  0  0  0  0  0  0  0  0  0  0  0
   -4.2489  -16.5174   13.6436 C   0  0  0  0  0  0  0  0  0  0  0  0
   -5.4575  -17.4011   13.9002 C   0  0  0  0  0  0  0  0  0  0  0  0
   -4.9079  -18.5761   14.6690 C   0  0  0  0  0  0  0  0  0  0  0  0
   -4.7089  -18.2712   16.0785 N   0  0  0  0  0  0  0  0  0  0  0  0
   -4.3150  -16.8480   16.2965 C   0  0  0  0  0  0  0  0  0  0  0  0
    2.9528  -11.8684   15.4654 H   0  0  0  0  0  0  0  0  0  0  0  0
    6.5037  -11.0092   18.8161 H   0  0  0  0  0  0  0  0  0  0  0  0
    6.8200   -5.7066   17.8239 H   0  0  0  0  0  0  0  0  0  0  0  0
    4.2729   -6.0781   17.9513 H   0  0  0  0  0  0  0  0  0  0  0  0
    3.4716   -8.4982   18.2511 H   0  0  0  0  0  0  0  0  0  0  0  0
   -0.3372  -12.8455   18.0119 H   0  0  0  0  0  0  0  0  0  0  0  0
   -2.5446  -12.7436   17.9308 H   0  0  0  0  0  0  0  0  0  0  0  0
   -2.7065  -17.1462   14.8149 H   0  0  0  0  0  0  0  0  0  0  0  0
   -4.4535  -15.6670   12.9737 H   0  0  0  0  0  0  0  0  0  0  0  0
   -3.7854  -17.2319   12.9853 H   0  0  0  0  0  0  0  0  0  0  0  0
   -5.8512  -17.7345   12.9314 H   0  0  0  0  0  0  0  0  0  0  0  0
   -6.2929  -16.9234   14.4162 H   0  0  0  0  0  0  0  0  0  0  0  0
   -3.9594  -18.9419   14.2547 H   0  0  0  0  0  0  0  0  0  0  0  0
   -5.5853  -19.3827   14.4764 H   0  0  0  0  0  0  0  0  0  0  0  0
   -5.5640  -18.4472   16.6034 H   0  0  0  0  0  0  0  0  0  0  0  0
   -5.2510  -16.2948   16.2861 H   0  0  0  0  0  0  0  0  0  0  0  0
   -3.9934  -16.7639   17.3319 H   0  0  0  0  0  0  0  0  0  0  0  0
  1  2  2  0
  2  3  1  0
  3  4  1  0
  4  5  1  0
  5  6  2  0
  6  7  1  0
  7  8  2  0
  8  9  1  0
  9 10  2  0
 10 11  1  0
 11 12  1  0
  2 13  1  0
 13 14  2  0
 14 15  1  0
 15 16  1  0
 16 17  2  0
 17 18  1  0
 18 19  1  0
 19 20  1  0
 20 21  1  0
 21 22  1  0
 22 23  1  0
 12  4  2  0
 17 13  1  0
 23 18  1  0
 11  7  1  0
  3 24  1  0
  5 25  1  0
  9 26  1  0
 10 27  1  0
 12 28  1  0
 14 29  1  0
 15 30  1  0
 18 31  1  0
 19 32  1  0
 19 33  1  0
 20 34  1  0
 20 35  1  0
 21 36  1  0
 21 37  1  0
 22 38  1  0
 23 39  1  0
 23 40  1  0
M  END
>  <Energy>  (971) 
2277.8767580918902

>  <compound_id>  (971) 
46897

>  <target_id>  (971) 
1

>  <reference_id>  (971) 
106

>  <inspiration_ids>  (971) 
[106, 9]

>  <energy_score>  (971) 
2156.0715697375967

>  <distance_score>  (971) 
11.394626716128212

>  <path>  (971) 
/opt/xchem-fragalysis-2/maxwin/BulkDock/SCRATCH/511023/C46897-P106/C46897-P106.minimised.mol

>  <scratch_subdir>  (971) 
/opt/xchem-fragalysis-2/maxwin/BulkDock/SCRATCH/511023/C46897-P106

>  <fragmenstein_runtime>  (971) 
11.015247106552124

>  <fragmenstein_outcome>  (971) 
too moved

>  <fragmenstein_mode>  (971) 
expansion

>  <fragmenstein_error>  (971) 


$$$$
C46897-P9
     RDKit          3D

 40 43  0  0  0  0  0  0  0  0999 V2000
    3.7382  -11.1152   16.0910 O   0  0  0  0  0  0  0  0  0  0  0  0
    3.2337  -11.0954   17.1792 C   0  0  0  0  0  0  0  0  0  0  0  0
    2.6166   -9.6162   17.9725 N   0  0  0  0  0  0  0  0  0  0  0  0
    2.4878   -8.1796   17.4687 C   0  0  0  0  0  0  0  0  0  0  0  0
    1.0729   -7.6040   17.2614 C   0  0  0  0  0  0  0  0  0  0  0  0
    0.6718   -6.3973   16.9551 N   0  0  0  0  0  0  0  0  0  0  0  0
    1.6275   -5.4348   16.9837 C   0  0  0  0  0  0  0  0  0  0  0  0
    1.6156   -4.1592   16.6523 N   0  0  0  0  0  0  0  0  0  0  0  0
    2.7328   -3.6180   17.2429 C   0  0  0  0  0  0  0  0  0  0  0  0
    3.4190   -4.5901   17.9258 C   0  0  0  0  0  0  0  0  0  0  0  0
    2.8199   -5.7564   17.5612 N   0  0  0  0  0  0  0  0  0  0  0  0
    3.2025   -7.0557   17.8008 C   0  0  0  0  0  0  0  0  0  0  0  0
    3.0555  -12.8763   17.8405 C   0  0  0  0  0  0  0  0  0  0  0  0
    3.9166  -13.7702   18.4879 C   0  0  0  0  0  0  0  0  0  0  0  0
    3.4865  -15.0603   18.2728 N   0  0  0  0  0  0  0  0  0  0  0  0
    2.2306  -15.3592   17.9327 N   0  0  0  0  0  0  0  0  0  0  0  0
    1.6376  -14.1920   17.6232 C   0  0  0  0  0  0  0  0  0  0  0  0
   -0.3356  -14.3807   17.5490 C   0  0  0  0  0  0  0  0  0  0  0  0
   -1.6374  -13.7699   16.9448 C   0  0  0  0  0  0  0  0  0  0  0  0
   -3.1314  -14.4955   16.7011 C   0  0  0  0  0  0  0  0  0  0  0  0
   -3.6843  -16.0254   16.7501 C   0  0  0  0  0  0  0  0  0  0  0  0
   -2.8708  -16.5147   17.8764 N   0  0  0  0  0  0  0  0  0  0  0  0
   -1.6527  -15.2575   18.6457 C   0  0  0  0  0  0  0  0  0  0  0  0
    2.1773   -9.8611   18.8191 H   0  0  0  0  0  0  0  0  0  0  0  0
    0.2722   -8.3298   17.4115 H   0  0  0  0  0  0  0  0  0  0  0  0
    2.9301   -2.5545   17.2024 H   0  0  0  0  0  0  0  0  0  0  0  0
    4.2385   -4.5867   18.6238 H   0  0  0  0  0  0  0  0  0  0  0  0
    4.2051   -7.0429   18.2057 H   0  0  0  0  0  0  0  0  0  0  0  0
    4.8116  -13.6044   19.0719 H   0  0  0  0  0  0  0  0  0  0  0  0
    4.0278  -15.8386   18.6180 H   0  0  0  0  0  0  0  0  0  0  0  0
   -0.1586  -13.3272   17.7078 H   0  0  0  0  0  0  0  0  0  0  0  0
   -1.9015  -12.8193   17.4322 H   0  0  0  0  0  0  0  0  0  0  0  0
   -1.2986  -13.7610   15.9549 H   0  0  0  0  0  0  0  0  0  0  0  0
   -3.8112  -13.7570   16.9572 H   0  0  0  0  0  0  0  0  0  0  0  0
   -3.1539  -14.4843   15.6593 H   0  0  0  0  0  0  0  0  0  0  0  0
   -4.7577  -16.1269   16.9873 H   0  0  0  0  0  0  0  0  0  0  0  0
   -3.6290  -16.5881   15.8090 H   0  0  0  0  0  0  0  0  0  0  0  0
   -3.3669  -16.9714   18.6488 H   0  0  0  0  0  0  0  0  0  0  0  0
   -2.1180  -14.3491   18.8695 H   0  0  0  0  0  0  0  0  0  0  0  0
   -1.4565  -15.7269   19.5901 H   0  0  0  0  0  0  0  0  0  0  0  0
  1  2  2  0
  2  3  1  0
  3  4  1  0
  4  5  1  0
  5  6  2  0
  6  7  1  0
  7  8  2  0
  8  9  1  0
  9 10  2  0
 10 11  1  0
 11 12  1  0
  2 13  1  0
 13 14  2  0
 14 15  1  0
 15 16  1  0
 16 17  2  0
 17 18  1  0
 18 19  1  0
 19 20  1  0
 20 21  1  0
 21 22  1  0
 22 23  1  0
 12  4  2  0
 17 13  1  0
 23 18  1  0
 11  7  1  0
  3 24  1  0
  5 25  1  0
  9 26  1  0
 10 27  1  0
 12 28  1  0
 14 29  1  0
 15 30  1  0
 18 31  1  0
 19 32  1  0
 19 33  1  0
 20 34  1  0
 20 35  1  0
 21 36  1  0
 21 37  1  0
 22 38  1  0
 23 39  1  0
 23 40  1  0
M  END
>  <Energy>  (972) 
605.99087379540629

>  <compound_id>  (972) 
46897

>  <target_id>  (972) 
1

>  <reference_id>  (972) 
9

>  <inspiration_ids>  (972) 
[106, 9]

>  <energy_score>  (972) 
484.18568544109746

>  <distance_score>  (972) 
13.598963030057726

>  <path>  (972) 
/opt/xchem-fragalysis-2/maxwin/BulkDock/SCRATCH/511023/C46897-P9/C46897-P9.minimised.mol

>  <scratch_subdir>  (972) 
/opt/xchem-fragalysis-2/maxwin/BulkDock/SCRATCH/511023/C46897-P9

>  <fragmenstein_runtime>  (972) 
21.277716875076294

>  <fragmenstein_outcome>  (972) 
too moved

>  <fragmenstein_mode>  (972) 
expansion

>  <fragmenstein_error>  (972) 


$$$$
C20851-P106
     RDKit          3D

 36 39  0  0  0  0  0  0  0  0999 V2000
    1.6634   -6.8211   20.3136 O   0  0  0  0  0  0  0  0  0  0  0  0
    2.0413   -7.4882   21.2327 C   0  0  0  0  0  0  0  0  0  0  0  0
    3.3390   -7.5628   21.8759 N   0  0  0  0  0  0  0  0  0  0  0  0
    4.5381   -6.9595   21.5639 C   0  0  0  0  0  0  0  0  0  0  0  0
    4.7592   -6.1879   20.2793 C   0  0  0  0  0  0  0  0  0  0  0  0
    5.8836   -5.6918   19.8535 N   0  0  0  0  0  0  0  0  0  0  0  0
    6.9570   -5.8449   20.6725 C   0  0  0  0  0  0  0  0  0  0  0  0
    8.2015   -5.4720   20.4683 N   0  0  0  0  0  0  0  0  0  0  0  0
    8.9112   -5.8492   21.5706 C   0  0  0  0  0  0  0  0  0  0  0  0
    8.0922   -6.4996   22.4614 C   0  0  0  0  0  0  0  0  0  0  0  0
    6.8475   -6.5067   21.8817 N   0  0  0  0  0  0  0  0  0  0  0  0
    5.6503   -7.0685   22.3155 C   0  0  0  0  0  0  0  0  0  0  0  0
    1.0881   -8.4641   21.8303 C   0  0  0  0  0  0  0  0  0  0  0  0
   -0.2609   -8.6139   21.5496 C   0  0  0  0  0  0  0  0  0  0  0  0
   -0.6649   -9.6663   22.3132 N   0  0  0  0  0  0  0  0  0  0  0  0
   -2.0095  -10.1762   22.4427 C   0  0  0  0  0  0  0  0  0  0  0  0
   -2.1954  -11.4483   23.2831 C   0  0  0  0  0  0  0  0  0  0  0  0
   -3.2549  -12.2642   22.5483 C   0  0  0  0  0  0  0  0  0  0  0  0
   -3.7886  -11.3740   21.5202 N   0  0  0  0  0  0  0  0  0  0  0  0
   -2.6520  -10.5485   21.1091 C   0  0  0  0  0  0  0  0  0  0  0  0
    0.3610  -10.1514   23.0430 N   0  0  0  0  0  0  0  0  0  0  0  0
    1.4419   -9.4504   22.7336 N   0  0  0  0  0  0  0  0  0  0  0  0
    3.2750   -8.1802   22.6817 H   0  0  0  0  0  0  0  0  0  0  0  0
    3.8747   -6.0664   19.6351 H   0  0  0  0  0  0  0  0  0  0  0  0
    9.9711   -5.6381   21.6550 H   0  0  0  0  0  0  0  0  0  0  0  0
    8.2839   -6.9492   23.4245 H   0  0  0  0  0  0  0  0  0  0  0  0
    5.6822   -7.6006   23.2574 H   0  0  0  0  0  0  0  0  0  0  0  0
   -0.9160   -8.0761   20.8794 H   0  0  0  0  0  0  0  0  0  0  0  0
   -2.5885   -9.3677   22.9117 H   0  0  0  0  0  0  0  0  0  0  0  0
   -2.5309  -11.1835   24.2925 H   0  0  0  0  0  0  0  0  0  0  0  0
   -1.2820  -12.0438   23.3836 H   0  0  0  0  0  0  0  0  0  0  0  0
   -4.0442  -12.6096   23.2222 H   0  0  0  0  0  0  0  0  0  0  0  0
   -2.7942  -13.1440   22.0837 H   0  0  0  0  0  0  0  0  0  0  0  0
   -4.1615  -11.9060   20.7340 H   0  0  0  0  0  0  0  0  0  0  0  0
   -2.9868   -9.6689   20.5507 H   0  0  0  0  0  0  0  0  0  0  0  0
   -1.9738  -11.1261   20.4706 H   0  0  0  0  0  0  0  0  0  0  0  0
  1  2  2  0
  2  3  1  0
  3  4  1  0
  4  5  1  0
  5  6  2  0
  6  7  1  0
  7  8  2  0
  8  9  1  0
  9 10  2  0
 10 11  1  0
 11 12  1  0
  2 13  1  0
 13 14  2  0
 14 15  1  0
 15 16  1  0
 16 17  1  0
 17 18  1  0
 18 19  1  0
 19 20  1  0
 15 21  1  0
 21 22  2  0
 12  4  2  0
 22 13  1  0
 11  7  1  0
 20 16  1  0
  3 23  1  0
  5 24  1  0
  9 25  1  0
 10 26  1  0
 12 27  1  0
 14 28  1  0
 16 29  1  0
 17 30  1  0
 17 31  1  0
 18 32  1  0
 18 33  1  0
 19 34  1  0
 20 35  1  0
 20 36  1  0
M  END
>  <Energy>  (973) 
53.815266826439455

>  <compound_id>  (973) 
20851

>  <target_id>  (973) 
1

>  <reference_id>  (973) 
106

>  <inspiration_ids>  (973) 
[106, 9]

>  <energy_score>  (973) 
-46.520259337764514

>  <distance_score>  (973) 
16.17451423788447

>  <path>  (973) 
/opt/xchem-fragalysis-2/maxwin/BulkDock/SCRATCH/511023/C20851-P106/C20851-P106.minimised.mol

>  <scratch_subdir>  (973) 
/opt/xchem-fragalysis-2/maxwin/BulkDock/SCRATCH/511023/C20851-P106

>  <fragmenstein_runtime>  (973) 
17.016997575759888

>  <fragmenstein_outcome>  (973) 
too moved

>  <fragmenstein_mode>  (973) 
expansion

>  <fragmenstein_error>  (973) 


$$$$
C20851-P9
     RDKit          3D

 36 39  0  0  0  0  0  0  0  0999 V2000
  -10.4410  -13.3097   16.7527 O   0  0  0  0  0  0  0  0  0  0  0  0
   -9.6871  -13.9727   17.4138 C   0  0  0  0  0  0  0  0  0  0  0  0
   -8.3356  -13.6374   17.9804 N   0  0  0  0  0  0  0  0  0  0  0  0
   -7.5100  -12.4677   17.8204 C   0  0  0  0  0  0  0  0  0  0  0  0
   -7.5983  -11.4730   16.6551 C   0  0  0  0  0  0  0  0  0  0  0  0
   -6.8334  -10.4409   16.3846 N   0  0  0  0  0  0  0  0  0  0  0  0
   -5.8161  -10.1667   17.2507 C   0  0  0  0  0  0  0  0  0  0  0  0
   -4.8370   -9.2741   17.1731 N   0  0  0  0  0  0  0  0  0  0  0  0
   -4.1258   -9.3925   18.3366 C   0  0  0  0  0  0  0  0  0  0  0  0
   -4.6743  -10.3787   19.1232 C   0  0  0  0  0  0  0  0  0  0  0  0
   -5.6828  -10.9532   18.3848 N   0  0  0  0  0  0  0  0  0  0  0  0
   -6.4902  -12.0912   18.6404 C   0  0  0  0  0  0  0  0  0  0  0  0
  -10.1948  -15.4551   17.6536 C   0  0  0  0  0  0  0  0  0  0  0  0
  -11.1665  -16.0155   18.5195 C   0  0  0  0  0  0  0  0  0  0  0  0
  -11.2568  -17.6699   18.2666 N   0  0  0  0  0  0  0  0  0  0  0  0
  -12.1764  -19.2485   18.9728 C   0  0  0  0  0  0  0  0  0  0  0  0
  -13.0696  -20.6873   18.2264 C   0  0  0  0  0  0  0  0  0  0  0  0
  -12.5710  -22.0208   19.5423 C   0  0  0  0  0  0  0  0  0  0  0  0
  -11.6175  -21.8369   20.5814 N   0  0  0  0  0  0  0  0  0  0  0  0
  -11.5008  -20.4538   20.5007 C   0  0  0  0  0  0  0  0  0  0  0  0
  -10.6273  -17.5515   16.9100 N   0  0  0  0  0  0  0  0  0  0  0  0
   -9.9059  -16.4420   16.7298 N   0  0  0  0  0  0  0  0  0  0  0  0
   -8.0167  -14.4066   18.5599 H   0  0  0  0  0  0  0  0  0  0  0  0
   -8.4182  -11.6862   15.9477 H   0  0  0  0  0  0  0  0  0  0  0  0
   -3.2904   -8.7401   18.5546 H   0  0  0  0  0  0  0  0  0  0  0  0
   -4.4705  -10.7379   20.1163 H   0  0  0  0  0  0  0  0  0  0  0  0
   -6.2506  -12.6365   19.5440 H   0  0  0  0  0  0  0  0  0  0  0  0
  -11.8076  -15.5974   19.2788 H   0  0  0  0  0  0  0  0  0  0  0  0
  -12.7132  -18.7606   19.7032 H   0  0  0  0  0  0  0  0  0  0  0  0
  -14.0463  -20.6417   18.3985 H   0  0  0  0  0  0  0  0  0  0  0  0
  -13.2924  -20.8228   17.1824 H   0  0  0  0  0  0  0  0  0  0  0  0
  -13.0692  -22.3524   20.4145 H   0  0  0  0  0  0  0  0  0  0  0  0
  -12.7247  -22.9208   19.0014 H   0  0  0  0  0  0  0  0  0  0  0  0
  -11.7293  -22.2197   21.5151 H   0  0  0  0  0  0  0  0  0  0  0  0
  -11.7354  -20.1198   21.4972 H   0  0  0  0  0  0  0  0  0  0  0  0
  -10.4284  -20.6419   20.4101 H   0  0  0  0  0  0  0  0  0  0  0  0
  1  2  2  0
  2  3  1  0
  3  4  1  0
  4  5  1  0
  5  6  2  0
  6  7  1  0
  7  8  2  0
  8  9  1  0
  9 10  2  0
 10 11  1  0
 11 12  1  0
  2 13  1  0
 13 14  2  0
 14 15  1  0
 15 16  1  0
 16 17  1  0
 17 18  1  0
 18 19  1  0
 19 20  1  0
 15 21  1  0
 21 22  2  0
 12  4  2  0
 22 13  1  0
 11  7  1  0
 20 16  1  0
  3 23  1  0
  5 24  1  0
  9 25  1  0
 10 26  1  0
 12 27  1  0
 14 28  1  0
 16 29  1  0
 17 30  1  0
 17 31  1  0
 18 32  1  0
 18 33  1  0
 19 34  1  0
 20 35  1  0
 20 36  1  0
M  END
>  <Energy>  (974) 
476.28661344463853

>  <compound_id>  (974) 
20851

>  <target_id>  (974) 
1

>  <reference_id>  (974) 
9

>  <inspiration_ids>  (974) 
[106, 9]

>  <energy_score>  (974) 
375.9510872804367

>  <distance_score>  (974) 
19.735329431318263

>  <path>  (974) 
/opt/xchem-fragalysis-2/maxwin/BulkDock/SCRATCH/511023/C20851-P9/C20851-P9.minimised.mol

>  <scratch_subdir>  (974) 
/opt/xchem-fragalysis-2/maxwin/BulkDock/SCRATCH/511023/C20851-P9

>  <fragmenstein_runtime>  (974) 
12.294922113418579

>  <fragmenstein_outcome>  (974) 
too moved

>  <fragmenstein_mode>  (974) 
expansion

>  <fragmenstein_error>  (974) 


$$$$
C26014-P106
     RDKit          3D

 37 39  0  0  0  0  0  0  0  0999 V2000
    6.8857  -20.9164   15.6445 C   0  0  0  0  0  0  0  0  0  0  0  0
    6.3250  -19.5943   15.3364 N   0  0  0  0  0  0  0  0  0  0  0  0
    7.4156  -18.7701   14.6278 C   0  0  0  0  0  0  0  0  0  0  0  0
    8.5675  -17.9999   15.4315 C   0  0  0  0  0  0  0  0  0  0  0  0
    8.9077  -17.8548   16.7712 C   0  0  0  0  0  0  0  0  0  0  0  0
    9.8464  -16.8162   16.8522 N   0  0  0  0  0  0  0  0  0  0  0  0
   10.2876  -16.0454   17.9377 C   0  0  0  0  0  0  0  0  0  0  0  0
   11.1088  -14.9999   17.7370 C   0  0  0  0  0  0  0  0  0  0  0  0
   11.5600  -14.8264   16.3305 C   0  0  0  0  0  0  0  0  0  0  0  0
   11.2041  -15.5631   15.3203 N   0  0  0  0  0  0  0  0  0  0  0  0
   10.2524  -16.5324   15.5608 C   0  0  0  0  0  0  0  0  0  0  0  0
    9.5069  -17.2290   14.7106 N   0  0  0  0  0  0  0  0  0  0  0  0
    5.0471  -19.7929   14.4347 C   0  0  0  0  0  0  0  0  0  0  0  0
    3.6469  -20.3842   14.9722 C   0  0  0  0  0  0  0  0  0  0  0  0
    3.5155  -21.8987   15.1318 C   0  0  0  0  0  0  0  0  0  0  0  0
    2.0121  -22.2073   15.0156 C   0  0  0  0  0  0  0  0  0  0  0  0
    1.3772  -20.9127   14.5455 C   0  0  0  0  0  0  0  0  0  0  0  0
    2.5135  -20.1340   14.0400 N   0  0  0  0  0  0  0  0  0  0  0  0
    7.7736  -20.8197   16.2784 H   0  0  0  0  0  0  0  0  0  0  0  0
    7.1644  -21.4692   14.7406 H   0  0  0  0  0  0  0  0  0  0  0  0
    6.1679  -21.5187   16.2078 H   0  0  0  0  0  0  0  0  0  0  0  0
    6.8731  -17.9798   14.1164 H   0  0  0  0  0  0  0  0  0  0  0  0
    7.9013  -19.3774   13.8534 H   0  0  0  0  0  0  0  0  0  0  0  0
    8.4705  -18.2680   17.6684 H   0  0  0  0  0  0  0  0  0  0  0  0
    9.8935  -16.3076   18.9113 H   0  0  0  0  0  0  0  0  0  0  0  0
   11.4723  -14.3396   18.5100 H   0  0  0  0  0  0  0  0  0  0  0  0
   12.2887  -14.0150   16.1676 H   0  0  0  0  0  0  0  0  0  0  0  0
    5.3506  -20.3576   13.5434 H   0  0  0  0  0  0  0  0  0  0  0  0
    4.8056  -18.7772   14.0930 H   0  0  0  0  0  0  0  0  0  0  0  0
    3.4070  -19.8949   15.9205 H   0  0  0  0  0  0  0  0  0  0  0  0
    4.0601  -22.4230   14.3370 H   0  0  0  0  0  0  0  0  0  0  0  0
    3.9118  -22.2422   16.0923 H   0  0  0  0  0  0  0  0  0  0  0  0
    1.8528  -23.0187   14.2970 H   0  0  0  0  0  0  0  0  0  0  0  0
    1.5982  -22.5207   15.9797 H   0  0  0  0  0  0  0  0  0  0  0  0
    0.6255  -21.0761   13.7684 H   0  0  0  0  0  0  0  0  0  0  0  0
    0.9031  -20.3886   15.3833 H   0  0  0  0  0  0  0  0  0  0  0  0
    2.2833  -19.1279   14.0561 H   0  0  0  0  0  0  0  0  0  0  0  0
  1  2  1  0
  2  3  1  0
  3  4  1  0
  4  5  2  0
  5  6  1  0
  6  7  1  0
  7  8  2  0
  8  9  1  0
  9 10  2  0
 10 11  1  0
 11 12  2  0
  2 13  1  0
 13 14  1  0
 14 15  1  0
 15 16  1  0
 16 17  1  0
 17 18  1  0
 12  4  1  0
 18 14  1  0
 11  6  1  0
  1 19  1  0
  1 20  1  0
  1 21  1  0
  3 22  1  0
  3 23  1  0
  5 24  1  0
  7 25  1  0
  8 26  1  0
  9 27  1  0
 13 28  1  0
 13 29  1  0
 14 30  1  0
 15 31  1  0
 15 32  1  0
 16 33  1  0
 16 34  1  0
 17 35  1  0
 17 36  1  0
 18 37  1  0
M  END
>  <Energy>  (975) 
90.525589964328645

>  <compound_id>  (975) 
26014

>  <target_id>  (975) 
1

>  <reference_id>  (975) 
106

>  <inspiration_ids>  (975) 
[106, 9]

>  <energy_score>  (975) 
-13.757296589024406

>  <distance_score>  (975) 
15.825604114048742

>  <path>  (975) 
/opt/xchem-fragalysis-2/maxwin/BulkDock/SCRATCH/511023/C26014-P106/C26014-P106.minimised.mol

>  <scratch_subdir>  (975) 
/opt/xchem-fragalysis-2/maxwin/BulkDock/SCRATCH/511023/C26014-P106

>  <fragmenstein_runtime>  (975) 
10.217235326766968

>  <fragmenstein_outcome>  (975) 
too moved

>  <fragmenstein_mode>  (975) 
expansion

>  <fragmenstein_error>  (975) 


$$$$
C26014-P9
     RDKit          3D

 37 39  0  0  0  0  0  0  0  0999 V2000
    4.4621  -15.9698   20.8036 C   0  0  0  0  0  0  0  0  0  0  0  0
    3.4809  -14.8872   20.8479 N   0  0  0  0  0  0  0  0  0  0  0  0
    3.9949  -13.7729   21.7796 C   0  0  0  0  0  0  0  0  0  0  0  0
    5.1300  -12.7306   21.3173 C   0  0  0  0  0  0  0  0  0  0  0  0
    6.4396  -12.8858   20.8741 C   0  0  0  0  0  0  0  0  0  0  0  0
    7.0240  -11.6267   20.8059 N   0  0  0  0  0  0  0  0  0  0  0  0
    8.3082  -11.2306   20.4266 C   0  0  0  0  0  0  0  0  0  0  0  0
    8.6508   -9.9341   20.4857 C   0  0  0  0  0  0  0  0  0  0  0  0
    7.5717   -9.0162   20.9403 C   0  0  0  0  0  0  0  0  0  0  0  0
    6.3668   -9.3611   21.2840 N   0  0  0  0  0  0  0  0  0  0  0  0
    6.0836  -10.7063   21.2507 C   0  0  0  0  0  0  0  0  0  0  0  0
    4.9490  -11.3385   21.5383 N   0  0  0  0  0  0  0  0  0  0  0  0
    2.1253  -15.4771   21.3381 C   0  0  0  0  0  0  0  0  0  0  0  0
    1.4586  -16.8292   20.7951 C   0  0  0  0  0  0  0  0  0  0  0  0
    0.8804  -16.8188   19.3873 C   0  0  0  0  0  0  0  0  0  0  0  0
   -0.0083  -18.0707   19.3554 C   0  0  0  0  0  0  0  0  0  0  0  0
   -0.4791  -18.2479   20.7852 C   0  0  0  0  0  0  0  0  0  0  0  0
    0.2421  -17.2286   21.5581 N   0  0  0  0  0  0  0  0  0  0  0  0
    4.2032  -16.6893   20.0200 H   0  0  0  0  0  0  0  0  0  0  0  0
    4.5315  -16.5021   21.7591 H   0  0  0  0  0  0  0  0  0  0  0  0
    5.4571  -15.5963   20.5622 H   0  0  0  0  0  0  0  0  0  0  0  0
    4.3510  -14.2242   22.7156 H   0  0  0  0  0  0  0  0  0  0  0  0
    3.1352  -13.1485   22.0489 H   0  0  0  0  0  0  0  0  0  0  0  0
    7.0157  -13.7689   20.6493 H   0  0  0  0  0  0  0  0  0  0  0  0
    8.9896  -12.0097   20.1101 H   0  0  0  0  0  0  0  0  0  0  0  0
    9.6216   -9.5423   20.2346 H   0  0  0  0  0  0  0  0  0  0  0  0
    7.8474   -7.9491   20.9723 H   0  0  0  0  0  0  0  0  0  0  0  0
    2.2547  -15.6333   22.4191 H   0  0  0  0  0  0  0  0  0  0  0  0
    1.3789  -14.6819   21.2421 H   0  0  0  0  0  0  0  0  0  0  0  0
    2.1947  -17.6376   20.8910 H   0  0  0  0  0  0  0  0  0  0  0  0
    1.6705  -16.8471   18.6321 H   0  0  0  0  0  0  0  0  0  0  0  0
    0.2767  -15.9185   19.2220 H   0  0  0  0  0  0  0  0  0  0  0  0
   -0.8456  -17.9847   18.6618 H   0  0  0  0  0  0  0  0  0  0  0  0
    0.5923  -18.9374   19.0540 H   0  0  0  0  0  0  0  0  0  0  0  0
   -1.5580  -18.0933   20.8799 H   0  0  0  0  0  0  0  0  0  0  0  0
   -0.2412  -19.2535   21.1480 H   0  0  0  0  0  0  0  0  0  0  0  0
    0.4953  -17.5825   22.4789 H   0  0  0  0  0  0  0  0  0  0  0  0
  1  2  1  0
  2  3  1  0
  3  4  1  0
  4  5  2  0
  5  6  1  0
  6  7  1  0
  7  8  2  0
  8  9  1  0
  9 10  2  0
 10 11  1  0
 11 12  2  0
  2 13  1  0
 13 14  1  0
 14 15  1  0
 15 16  1  0
 16 17  1  0
 17 18  1  0
 12  4  1  0
 18 14  1  0
 11  6  1  0
  1 19  1  0
  1 20  1  0
  1 21  1  0
  3 22  1  0
  3 23  1  0
  5 24  1  0
  7 25  1  0
  8 26  1  0
  9 27  1  0
 13 28  1  0
 13 29  1  0
 14 30  1  0
 15 31  1  0
 15 32  1  0
 16 33  1  0
 16 34  1  0
 17 35  1  0
 17 36  1  0
 18 37  1  0
M  END
>  <Energy>  (976) 
88.263910517612231

>  <compound_id>  (976) 
26014

>  <target_id>  (976) 
1

>  <reference_id>  (976) 
9

>  <inspiration_ids>  (976) 
[106, 9]

>  <energy_score>  (976) 
-16.01897603574257

>  <distance_score>  (976) 
14.441871777536175

>  <path>  (976) 
/opt/xchem-fragalysis-2/maxwin/BulkDock/SCRATCH/511023/C26014-P9/C26014-P9.minimised.mol

>  <scratch_subdir>  (976) 
/opt/xchem-fragalysis-2/maxwin/BulkDock/SCRATCH/511023/C26014-P9

>  <fragmenstein_runtime>  (976) 
10.161892414093018

>  <fragmenstein_outcome>  (976) 
too moved

>  <fragmenstein_mode>  (976) 
expansion

>  <fragmenstein_error>  (976) 


$$$$
C46900-P106
     RDKit          3D

 46 49  0  0  0  0  0  0  0  0999 V2000
   -6.0313  -11.6628   17.2902 O   0  0  0  0  0  0  0  0  0  0  0  0
   -5.1464  -12.0983   17.9743 C   0  0  0  0  0  0  0  0  0  0  0  0
   -4.0293  -11.4147   18.6357 N   0  0  0  0  0  0  0  0  0  0  0  0
   -3.5932   -9.9947   18.5837 C   0  0  0  0  0  0  0  0  0  0  0  0
   -2.4666   -9.3178   19.3673 C   0  0  0  0  0  0  0  0  0  0  0  0
   -1.8060   -9.6036   20.5495 C   0  0  0  0  0  0  0  0  0  0  0  0
   -0.9480   -8.5407   20.8010 N   0  0  0  0  0  0  0  0  0  0  0  0
    0.0066   -8.3533   21.8031 C   0  0  0  0  0  0  0  0  0  0  0  0
    0.6053   -7.1606   21.9420 C   0  0  0  0  0  0  0  0  0  0  0  0
    0.1230   -6.1166   21.0026 C   0  0  0  0  0  0  0  0  0  0  0  0
   -0.7475   -6.2803   20.0506 N   0  0  0  0  0  0  0  0  0  0  0  0
   -1.2447   -7.5465   19.8793 C   0  0  0  0  0  0  0  0  0  0  0  0
   -2.0486   -8.0328   18.9440 N   0  0  0  0  0  0  0  0  0  0  0  0
   -5.3055  -13.6393   18.1290 C   0  0  0  0  0  0  0  0  0  0  0  0
   -5.9929  -14.3287   17.0854 C   0  0  0  0  0  0  0  0  0  0  0  0
   -6.4656  -15.6592   17.2012 C   0  0  0  0  0  0  0  0  0  0  0  0
   -6.2812  -16.3823   18.3830 C   0  0  0  0  0  0  0  0  0  0  0  0
   -6.9289  -17.7652   18.5262 C   0  0  0  0  0  0  0  0  0  0  0  0
   -8.4509  -17.6302   18.7788 C   0  0  0  0  0  0  0  0  0  0  0  0
   -9.0055  -18.7106   19.7022 C   0  0  0  0  0  0  0  0  0  0  0  0
   -8.3276  -20.0417   19.4464 C   0  0  0  0  0  0  0  0  0  0  0  0
   -6.8732  -20.0414   19.6127 N   0  0  0  0  0  0  0  0  0  0  0  0
   -6.2868  -18.6999   19.5724 C   0  0  0  0  0  0  0  0  0  0  0  0
   -5.5596  -15.7335   19.4046 C   0  0  0  0  0  0  0  0  0  0  0  0
   -5.0804  -14.3875   19.2838 C   0  0  0  0  0  0  0  0  0  0  0  0
   -3.4260  -12.1047   19.0629 H   0  0  0  0  0  0  0  0  0  0  0  0
   -4.5049   -9.4222   18.7997 H   0  0  0  0  0  0  0  0  0  0  0  0
   -3.3976   -9.8155   17.5213 H   0  0  0  0  0  0  0  0  0  0  0  0
   -1.8445  -10.4566   21.2087 H   0  0  0  0  0  0  0  0  0  0  0  0
    0.2045   -9.1968   22.4495 H   0  0  0  0  0  0  0  0  0  0  0  0
    1.3324   -6.9157   22.7012 H   0  0  0  0  0  0  0  0  0  0  0  0
    0.5481   -5.1121   21.1657 H   0  0  0  0  0  0  0  0  0  0  0  0
   -6.2305  -13.7886   16.1673 H   0  0  0  0  0  0  0  0  0  0  0  0
   -7.0193  -16.0919   16.3694 H   0  0  0  0  0  0  0  0  0  0  0  0
   -6.7900  -18.2623   17.5574 H   0  0  0  0  0  0  0  0  0  0  0  0
   -8.6963  -16.6529   19.2144 H   0  0  0  0  0  0  0  0  0  0  0  0
   -8.9740  -17.6628   17.8153 H   0  0  0  0  0  0  0  0  0  0  0  0
   -8.8493  -18.4134   20.7473 H   0  0  0  0  0  0  0  0  0  0  0  0
  -10.0889  -18.7945   19.5658 H   0  0  0  0  0  0  0  0  0  0  0  0
   -8.7577  -20.7774   20.1313 H   0  0  0  0  0  0  0  0  0  0  0  0
   -8.5533  -20.3588   18.4239 H   0  0  0  0  0  0  0  0  0  0  0  0
   -6.4688  -20.6029   18.8576 H   0  0  0  0  0  0  0  0  0  0  0  0
   -6.3732  -18.2651   20.5759 H   0  0  0  0  0  0  0  0  0  0  0  0
   -5.2115  -18.7968   19.3792 H   0  0  0  0  0  0  0  0  0  0  0  0
   -5.3920  -16.2332   20.3575 H   0  0  0  0  0  0  0  0  0  0  0  0
   -4.6120  -13.9263   20.1494 H   0  0  0  0  0  0  0  0  0  0  0  0
  1  2  2  0
  2  3  1  0
  3  4  1  0
  4  5  1  0
  5  6  2  0
  6  7  1  0
  7  8  1  0
  8  9  2  0
  9 10  1  0
 10 11  2  0
 11 12  1  0
 12 13  2  0
  2 14  1  0
 14 15  2  0
 15 16  1  0
 16 17  2  0
 17 18  1  0
 18 19  1  0
 19 20  1  0
 20 21  1  0
 21 22  1  0
 22 23  1  0
 17 24  1  0
 24 25  2  0
 13  5  1  0
 25 14  1  0
 12  7  1  0
 23 18  1  0
  3 26  1  0
  4 27  1  0
  4 28  1  0
  6 29  1  0
  8 30  1  0
  9 31  1  0
 10 32  1  0
 15 33  1  0
 16 34  1  0
 18 35  1  0
 19 36  1  0
 19 37  1  0
 20 38  1  0
 20 39  1  0
 21 40  1  0
 21 41  1  0
 22 42  1  0
 23 43  1  0
 23 44  1  0
 24 45  1  0
 25 46  1  0
M  END
>  <Energy>  (977) 
97.758505094082253

>  <compound_id>  (977) 
46900

>  <target_id>  (977) 
1

>  <reference_id>  (977) 
106

>  <inspiration_ids>  (977) 
[106, 9]

>  <energy_score>  (977) 
0.6542911216970992

>  <distance_score>  (977) 
14.538295052313135

>  <path>  (977) 
/opt/xchem-fragalysis-2/maxwin/BulkDock/SCRATCH/511023/C46900-P106/C46900-P106.minimised.mol

>  <scratch_subdir>  (977) 
/opt/xchem-fragalysis-2/maxwin/BulkDock/SCRATCH/511023/C46900-P106

>  <fragmenstein_runtime>  (977) 
28.022959232330322

>  <fragmenstein_outcome>  (977) 
too moved

>  <fragmenstein_mode>  (977) 
expansion

>  <fragmenstein_error>  (977) 


$$$$
C46900-P9
     RDKit          3D

 46 49  0  0  0  0  0  0  0  0999 V2000
    0.7662  -11.2370   11.2281 O   0  0  0  0  0  0  0  0  0  0  0  0
    1.4599  -11.8828   10.4882 C   0  0  0  0  0  0  0  0  0  0  0  0
    2.9722  -11.8308   10.2548 N   0  0  0  0  0  0  0  0  0  0  0  0
    4.2586  -10.8872   11.0833 C   0  0  0  0  0  0  0  0  0  0  0  0
    5.4197  -10.9186   12.8564 C   0  0  0  0  0  0  0  0  0  0  0  0
    6.7775  -10.2367   13.2392 C   0  0  0  0  0  0  0  0  0  0  0  0
    7.9020  -10.9523   12.8585 N   0  0  0  0  0  0  0  0  0  0  0  0
    9.1070  -10.5230   12.3330 C   0  0  0  0  0  0  0  0  0  0  0  0
   10.1689  -11.3283   12.3585 C   0  0  0  0  0  0  0  0  0  0  0  0
    9.8461  -12.6616   12.9209 C   0  0  0  0  0  0  0  0  0  0  0  0
    8.6644  -13.1242   13.2057 N   0  0  0  0  0  0  0  0  0  0  0  0
    7.6041  -12.2618   13.1079 C   0  0  0  0  0  0  0  0  0  0  0  0
    6.2325  -12.3225   13.2680 N   0  0  0  0  0  0  0  0  0  0  0  0
    0.5353  -13.0797    9.7362 C   0  0  0  0  0  0  0  0  0  0  0  0
   -0.8719  -12.8901    9.6610 C   0  0  0  0  0  0  0  0  0  0  0  0
   -1.8736  -13.9577    9.7038 C   0  0  0  0  0  0  0  0  0  0  0  0
   -1.5505  -15.3043    9.9268 C   0  0  0  0  0  0  0  0  0  0  0  0
   -2.6458  -16.3877   10.1337 C   0  0  0  0  0  0  0  0  0  0  0  0
   -3.3568  -16.3066   11.5206 C   0  0  0  0  0  0  0  0  0  0  0  0
   -3.9904  -17.6453   11.9301 C   0  0  0  0  0  0  0  0  0  0  0  0
   -2.9221  -18.7414   12.0083 C   0  0  0  0  0  0  0  0  0  0  0  0
   -1.8293  -18.5675   11.0494 N   0  0  0  0  0  0  0  0  0  0  0  0
   -2.2465  -17.8646    9.8429 C   0  0  0  0  0  0  0  0  0  0  0  0
   -0.1726  -15.5375    9.9211 C   0  0  0  0  0  0  0  0  0  0  0  0
    0.8204  -14.4703    9.7809 C   0  0  0  0  0  0  0  0  0  0  0  0
    3.2160  -12.4595    9.4982 H   0  0  0  0  0  0  0  0  0  0  0  0
    4.3448  -11.9883   11.1650 H   0  0  0  0  0  0  0  0  0  0  0  0
    3.3946  -10.2942   11.4769 H   0  0  0  0  0  0  0  0  0  0  0  0
    7.1041   -9.2179   13.4261 H   0  0  0  0  0  0  0  0  0  0  0  0
    9.0946   -9.5667   11.8382 H   0  0  0  0  0  0  0  0  0  0  0  0
   11.1413  -11.1122   11.9449 H   0  0  0  0  0  0  0  0  0  0  0  0
   10.7111  -13.3347   13.0421 H   0  0  0  0  0  0  0  0  0  0  0  0
   -1.2379  -11.8604    9.6626 H   0  0  0  0  0  0  0  0  0  0  0  0
   -2.9221  -13.6664    9.6336 H   0  0  0  0  0  0  0  0  0  0  0  0
   -3.4067  -16.1541    9.3735 H   0  0  0  0  0  0  0  0  0  0  0  0
   -4.1213  -15.5211   11.4956 H   0  0  0  0  0  0  0  0  0  0  0  0
   -2.6323  -16.0114   12.2908 H   0  0  0  0  0  0  0  0  0  0  0  0
   -4.4931  -17.5446   12.8983 H   0  0  0  0  0  0  0  0  0  0  0  0
   -4.7565  -17.9199   11.1945 H   0  0  0  0  0  0  0  0  0  0  0  0
   -2.4868  -18.7571   13.0137 H   0  0  0  0  0  0  0  0  0  0  0  0
   -3.4024  -19.7152   11.8561 H   0  0  0  0  0  0  0  0  0  0  0  0
   -1.4180  -19.4741   10.8301 H   0  0  0  0  0  0  0  0  0  0  0  0
   -3.0958  -18.3956    9.3920 H   0  0  0  0  0  0  0  0  0  0  0  0
   -1.4461  -17.9053    9.0960 H   0  0  0  0  0  0  0  0  0  0  0  0
    0.2124  -16.5491   10.0608 H   0  0  0  0  0  0  0  0  0  0  0  0
    1.8457  -14.8193    9.7656 H   0  0  0  0  0  0  0  0  0  0  0  0
  1  2  2  0
  2  3  1  0
  3  4  1  0
  4  5  1  0
  5  6  2  0
  6  7  1  0
  7  8  1  0
  8  9  2  0
  9 10  1  0
 10 11  2  0
 11 12  1  0
 12 13  2  0
  2 14  1  0
 14 15  2  0
 15 16  1  0
 16 17  2  0
 17 18  1  0
 18 19  1  0
 19 20  1  0
 20 21  1  0
 21 22  1  0
 22 23  1  0
 17 24  1  0
 24 25  2  0
 13  5  1  0
 25 14  1  0
 12  7  1  0
 23 18  1  0
  3 26  1  0
  4 27  1  0
  4 28  1  0
  6 29  1  0
  8 30  1  0
  9 31  1  0
 10 32  1  0
 15 33  1  0
 16 34  1  0
 18 35  1  0
 19 36  1  0
 19 37  1  0
 20 38  1  0
 20 39  1  0
 21 40  1  0
 21 41  1  0
 22 42  1  0
 23 43  1  0
 23 44  1  0
 24 45  1  0
 25 46  1  0
M  END
>  <Energy>  (978) 
412.88129385417068

>  <compound_id>  (978) 
46900

>  <target_id>  (978) 
1

>  <reference_id>  (978) 
9

>  <inspiration_ids>  (978) 
[106, 9]

>  <energy_score>  (978) 
315.77707988177434

>  <distance_score>  (978) 
15.130571748602314

>  <path>  (978) 
/opt/xchem-fragalysis-2/maxwin/BulkDock/SCRATCH/511023/C46900-P9/C46900-P9.minimised.mol

>  <scratch_subdir>  (978) 
/opt/xchem-fragalysis-2/maxwin/BulkDock/SCRATCH/511023/C46900-P9

>  <fragmenstein_runtime>  (978) 
23.45157027244568

>  <fragmenstein_outcome>  (978) 
too moved

>  <fragmenstein_mode>  (978) 
expansion

>  <fragmenstein_error>  (978) 


$$$$
C46901-P106
     RDKit          3D

 39 42  0  0  0  0  0  0  0  0999 V2000
   11.2322   -5.3772   15.7897 C   0  0  0  0  0  0  0  0  0  0  0  0
   10.1799   -4.6709   14.7345 C   0  0  0  0  0  0  0  0  0  0  0  0
    8.8328   -5.4860   14.3792 N   0  0  0  0  0  0  0  0  0  0  0  0
    8.3972   -7.1921   14.7086 C   0  0  0  0  0  0  0  0  0  0  0  0
    7.3660   -8.0685   14.0221 N   0  0  0  0  0  0  0  0  0  0  0  0
    7.3316   -9.7360   13.8392 C   0  0  0  0  0  0  0  0  0  0  0  0
    5.4815  -10.7605   13.9192 C   0  0  0  0  0  0  0  0  0  0  0  0
    3.6157  -11.7187   15.2757 S   0  0  0  0  0  0  0  0  0  0  0  0
    1.3785  -12.8168   14.4379 C   0  0  0  0  0  0  0  0  0  0  0  0
    0.8963  -12.1570   13.3272 N   0  0  0  0  0  0  0  0  0  0  0  0
    0.5010  -13.0288   12.2981 N   0  0  0  0  0  0  0  0  0  0  0  0
   -0.4078  -13.5062   12.9871 C   0  0  0  0  0  0  0  0  0  0  0  0
   -0.2875  -14.1194   14.1766 N   0  0  0  0  0  0  0  0  0  0  0  0
   -1.9579  -15.4003   14.8766 C   0  0  0  0  0  0  0  0  0  0  0  0
   -2.3629  -17.5693   14.6978 C   0  0  0  0  0  0  0  0  0  0  0  0
   -2.0405  -19.2182   13.5509 C   0  0  0  0  0  0  0  0  0  0  0  0
   -3.8449  -19.3918   12.8525 C   0  0  0  0  0  0  0  0  0  0  0  0
   -4.7992  -18.2102   13.9928 N   0  0  0  0  0  0  0  0  0  0  0  0
   -3.7602  -16.6032   14.7784 C   0  0  0  0  0  0  0  0  0  0  0  0
    8.8168   -9.5142   14.6888 C   0  0  0  0  0  0  0  0  0  0  0  0
    9.5027   -7.8995   15.0873 N   0  0  0  0  0  0  0  0  0  0  0  0
   10.9733   -6.8237   15.5739 C   0  0  0  0  0  0  0  0  0  0  0  0
   12.1029   -4.8655   16.1764 H   0  0  0  0  0  0  0  0  0  0  0  0
   10.2611   -3.5788   14.5645 H   0  0  0  0  0  0  0  0  0  0  0  0
    4.6522  -10.1110   13.7005 H   0  0  0  0  0  0  0  0  0  0  0  0
    5.6436  -11.5273   13.1478 H   0  0  0  0  0  0  0  0  0  0  0  0
   -0.9089  -12.6495   13.3662 H   0  0  0  0  0  0  0  0  0  0  0  0
   -2.0940  -14.8783   15.8550 H   0  0  0  0  0  0  0  0  0  0  0  0
   -1.8751  -18.3211   15.3648 H   0  0  0  0  0  0  0  0  0  0  0  0
   -2.9363  -17.7128   13.8555 H   0  0  0  0  0  0  0  0  0  0  0  0
   -2.0494  -20.2466   13.8932 H   0  0  0  0  0  0  0  0  0  0  0  0
   -1.1882  -19.3269   12.8292 H   0  0  0  0  0  0  0  0  0  0  0  0
   -4.2500  -20.3987   13.0600 H   0  0  0  0  0  0  0  0  0  0  0  0
   -3.8724  -19.4153   11.7513 H   0  0  0  0  0  0  0  0  0  0  0  0
   -5.6700  -17.9066   13.5281 H   0  0  0  0  0  0  0  0  0  0  0  0
   -4.0310  -16.7549   15.8501 H   0  0  0  0  0  0  0  0  0  0  0  0
   -4.6527  -16.1562   14.4509 H   0  0  0  0  0  0  0  0  0  0  0  0
    9.4205  -10.2364   15.2176 H   0  0  0  0  0  0  0  0  0  0  0  0
   11.9156   -7.2766   15.9403 H   0  0  0  0  0  0  0  0  0  0  0  0
  1  2  1  0
  2  3  2  0
  3  4  1  0
  4  5  2  0
  5  6  1  0
  6  7  1  0
  7  8  1  0
  8  9  1  0
  9 10  2  0
 10 11  1  0
 11 12  2  0
 12 13  1  0
 13 14  1  0
 14 15  1  0
 15 16  1  0
 16 17  1  0
 17 18  1  0
 18 19  1  0
  6 20  2  0
 20 21  1  0
 21 22  1  0
 22  1  2  0
 21  4  1  0
 13  9  1  0
 19 14  1  0
  1 23  1  0
  2 24  1  0
  7 25  1  0
  7 26  1  0
 12 27  1  0
 14 28  1  0
 15 29  1  0
 15 30  1  0
 16 31  1  0
 16 32  1  0
 17 33  1  0
 17 34  1  0
 18 35  1  0
 19 36  1  0
 19 37  1  0
 20 38  1  0
 22 39  1  0
M  END
>  <Energy>  (979) 
2554.0526604851643

>  <compound_id>  (979) 
46901

>  <target_id>  (979) 
1

>  <reference_id>  (979) 
106

>  <inspiration_ids>  (979) 
[106, 9]

>  <energy_score>  (979) 
2475.120781969452

>  <distance_score>  (979) 
9.617925857576552

>  <path>  (979) 
/opt/xchem-fragalysis-2/maxwin/BulkDock/SCRATCH/511023/C46901-P106/C46901-P106.minimised.mol

>  <scratch_subdir>  (979) 
/opt/xchem-fragalysis-2/maxwin/BulkDock/SCRATCH/511023/C46901-P106

>  <fragmenstein_runtime>  (979) 
12.943936347961426

>  <fragmenstein_outcome>  (979) 
too moved

>  <fragmenstein_mode>  (979) 
expansion

>  <fragmenstein_error>  (979) 


$$$$
C46901-P9
     RDKit          3D

 39 42  0  0  0  0  0  0  0  0999 V2000
    6.5798   -6.3979   15.7622 C   0  0  0  0  0  0  0  0  0  0  0  0
    5.1593   -5.7518   15.4730 C   0  0  0  0  0  0  0  0  0  0  0  0
    4.3760   -6.1433   14.4804 N   0  0  0  0  0  0  0  0  0  0  0  0
    4.7213   -7.3716   13.8176 C   0  0  0  0  0  0  0  0  0  0  0  0
    3.9281   -8.4113   13.7420 N   0  0  0  0  0  0  0  0  0  0  0  0
    3.6916  -10.1776   13.8268 C   0  0  0  0  0  0  0  0  0  0  0  0
    1.8449  -11.1315   13.3580 C   0  0  0  0  0  0  0  0  0  0  0  0
    0.2089  -12.9721   13.0337 S   0  0  0  0  0  0  0  0  0  0  0  0
   -1.2642  -13.9860   14.5908 C   0  0  0  0  0  0  0  0  0  0  0  0
   -1.0710  -13.8708   16.1678 N   0  0  0  0  0  0  0  0  0  0  0  0
   -2.2329  -13.8213   16.9980 N   0  0  0  0  0  0  0  0  0  0  0  0
   -3.1744  -14.5189   16.4131 C   0  0  0  0  0  0  0  0  0  0  0  0
   -2.7923  -14.9767   14.9207 N   0  0  0  0  0  0  0  0  0  0  0  0
   -4.0710  -16.1932   14.2625 C   0  0  0  0  0  0  0  0  0  0  0  0
   -5.8534  -16.0949   13.3801 C   0  0  0  0  0  0  0  0  0  0  0  0
   -6.5365  -17.0248   12.3566 C   0  0  0  0  0  0  0  0  0  0  0  0
   -6.1559  -18.4403   12.6242 C   0  0  0  0  0  0  0  0  0  0  0  0
   -5.1624  -18.6594   13.6974 N   0  0  0  0  0  0  0  0  0  0  0  0
   -3.9197  -17.5582   14.6320 C   0  0  0  0  0  0  0  0  0  0  0  0
    5.2232   -9.9491   14.0409 C   0  0  0  0  0  0  0  0  0  0  0  0
    5.9164   -8.1591   14.1572 N   0  0  0  0  0  0  0  0  0  0  0  0
    7.0146   -7.4484   14.9611 C   0  0  0  0  0  0  0  0  0  0  0  0
    7.0873   -5.9100   16.5473 H   0  0  0  0  0  0  0  0  0  0  0  0
    4.8802   -4.8867   16.0838 H   0  0  0  0  0  0  0  0  0  0  0  0
    1.6216  -10.8709   12.2671 H   0  0  0  0  0  0  0  0  0  0  0  0
    1.6775  -11.9372   14.1084 H   0  0  0  0  0  0  0  0  0  0  0  0
   -3.8301  -15.2820   16.7552 H   0  0  0  0  0  0  0  0  0  0  0  0
   -3.9575  -15.6239   13.3079 H   0  0  0  0  0  0  0  0  0  0  0  0
   -5.9020  -15.1137   12.8722 H   0  0  0  0  0  0  0  0  0  0  0  0
   -6.6633  -16.2439   14.1114 H   0  0  0  0  0  0  0  0  0  0  0  0
   -7.6254  -16.8949   12.4369 H   0  0  0  0  0  0  0  0  0  0  0  0
   -6.3303  -16.7266   11.3209 H   0  0  0  0  0  0  0  0  0  0  0  0
   -7.0681  -18.9961   12.6313 H   0  0  0  0  0  0  0  0  0  0  0  0
   -5.8601  -18.9943   11.7164 H   0  0  0  0  0  0  0  0  0  0  0  0
   -4.4705  -19.3302   13.3318 H   0  0  0  0  0  0  0  0  0  0  0  0
   -3.8591  -17.6299   15.7328 H   0  0  0  0  0  0  0  0  0  0  0  0
   -2.9040  -17.7836   14.3071 H   0  0  0  0  0  0  0  0  0  0  0  0
    6.0985  -10.5218   13.7524 H   0  0  0  0  0  0  0  0  0  0  0  0
    7.9773   -7.9435   14.9942 H   0  0  0  0  0  0  0  0  0  0  0  0
  1  2  1  0
  2  3  2  0
  3  4  1  0
  4  5  2  0
  5  6  1  0
  6  7  1  0
  7  8  1  0
  8  9  1  0
  9 10  2  0
 10 11  1  0
 11 12  2  0
 12 13  1  0
 13 14  1  0
 14 15  1  0
 15 16  1  0
 16 17  1  0
 17 18  1  0
 18 19  1  0
  6 20  2  0
 20 21  1  0
 21 22  1  0
 22  1  2  0
 21  4  1  0
 13  9  1  0
 19 14  1  0
  1 23  1  0
  2 24  1  0
  7 25  1  0
  7 26  1  0
 12 27  1  0
 14 28  1  0
 15 29  1  0
 15 30  1  0
 16 31  1  0
 16 32  1  0
 17 33  1  0
 17 34  1  0
 18 35  1  0
 19 36  1  0
 19 37  1  0
 20 38  1  0
 22 39  1  0
M  END
>  <Energy>  (980) 
1198.6928055143806

>  <compound_id>  (980) 
46901

>  <target_id>  (980) 
1

>  <reference_id>  (980) 
9

>  <inspiration_ids>  (980) 
[106, 9]

>  <energy_score>  (980) 
1119.760926998641

>  <distance_score>  (980) 
10.718774235647082

>  <path>  (980) 
/opt/xchem-fragalysis-2/maxwin/BulkDock/SCRATCH/511023/C46901-P9/C46901-P9.minimised.mol

>  <scratch_subdir>  (980) 
/opt/xchem-fragalysis-2/maxwin/BulkDock/SCRATCH/511023/C46901-P9

>  <fragmenstein_runtime>  (980) 
6.859083890914917

>  <fragmenstein_outcome>  (980) 
too moved

>  <fragmenstein_mode>  (980) 
expansion

>  <fragmenstein_error>  (980) 


$$$$
C46906-P106
     RDKit          3D

 32 34  0  0  0  0  0  0  0  0999 V2000
    9.4821   -6.3473   18.7885 C   0  0  0  0  0  0  0  0  0  0  0  0
   10.4751   -6.6587   16.7619 C   0  0  0  0  0  0  0  0  0  0  0  0
    9.2856   -7.4893   15.6068 N   0  0  0  0  0  0  0  0  0  0  0  0
    7.3941   -7.7732   15.7092 C   0  0  0  0  0  0  0  0  0  0  0  0
    6.3375   -8.9893   15.3508 N   0  0  0  0  0  0  0  0  0  0  0  0
    4.7730   -9.5457   16.1640 C   0  0  0  0  0  0  0  0  0  0  0  0
    3.5240  -11.2389   16.0522 C   0  0  0  0  0  0  0  0  0  0  0  0
    1.8139  -12.5610   15.5681 C   0  0  0  0  0  0  0  0  0  0  0  0
    0.9653  -13.7940   16.9151 C   0  0  0  0  0  0  0  0  0  0  0  0
   -0.8842  -13.5176   17.2715 C   0  0  0  0  0  0  0  0  0  0  0  0
   -1.5700  -14.2231   15.8575 C   0  0  0  0  0  0  0  0  0  0  0  0
   -0.9049  -13.7884   14.0717 N   0  0  0  0  0  0  0  0  0  0  0  0
    0.6709  -12.9027   13.8811 C   0  0  0  0  0  0  0  0  0  0  0  0
    5.2511   -8.4864   17.3240 C   0  0  0  0  0  0  0  0  0  0  0  0
    6.6669   -7.4263   17.3407 N   0  0  0  0  0  0  0  0  0  0  0  0
    7.5323   -6.5634   18.7773 C   0  0  0  0  0  0  0  0  0  0  0  0
    9.9391   -5.7869   19.6330 H   0  0  0  0  0  0  0  0  0  0  0  0
   11.3794   -6.1315   16.2949 H   0  0  0  0  0  0  0  0  0  0  0  0
    3.9558  -11.3706   15.0599 H   0  0  0  0  0  0  0  0  0  0  0  0
    3.9450  -11.6858   16.9444 H   0  0  0  0  0  0  0  0  0  0  0  0
    2.2969  -13.2422   15.0092 H   0  0  0  0  0  0  0  0  0  0  0  0
    1.0467  -14.6789   16.3644 H   0  0  0  0  0  0  0  0  0  0  0  0
    1.5663  -14.0144   17.8092 H   0  0  0  0  0  0  0  0  0  0  0  0
   -1.1839  -12.5199   17.6182 H   0  0  0  0  0  0  0  0  0  0  0  0
   -1.4066  -14.0449   18.0776 H   0  0  0  0  0  0  0  0  0  0  0  0
   -2.0116  -15.1837   15.7374 H   0  0  0  0  0  0  0  0  0  0  0  0
   -2.6017  -13.9372   16.1790 H   0  0  0  0  0  0  0  0  0  0  0  0
   -0.8575  -14.6105   13.4800 H   0  0  0  0  0  0  0  0  0  0  0  0
    0.4272  -12.1578   13.1486 H   0  0  0  0  0  0  0  0  0  0  0  0
    1.0152  -13.7268   13.2463 H   0  0  0  0  0  0  0  0  0  0  0  0
    4.8421   -8.3927   18.3169 H   0  0  0  0  0  0  0  0  0  0  0  0
    6.9082   -6.4669   19.6680 H   0  0  0  0  0  0  0  0  0  0  0  0
  1  2  1  0
  2  3  2  0
  3  4  1  0
  4  5  2  0
  5  6  1  0
  6  7  1  0
  7  8  1  0
  8  9  1  0
  9 10  1  0
 10 11  1  0
 11 12  1  0
 12 13  1  0
  6 14  2  0
 14 15  1  0
 15 16  1  0
 16  1  2  0
 15  4  1  0
 13  8  1  0
  1 17  1  0
  2 18  1  0
  7 19  1  0
  7 20  1  0
  8 21  1  0
  9 22  1  0
  9 23  1  0
 10 24  1  0
 10 25  1  0
 11 26  1  0
 11 27  1  0
 12 28  1  0
 13 29  1  0
 13 30  1  0
 14 31  1  0
 16 32  1  0
M  END
>  <Energy>  (981) 
1637.6695404331376

>  <compound_id>  (981) 
46906

>  <target_id>  (981) 
1

>  <reference_id>  (981) 
106

>  <inspiration_ids>  (981) 
[106, 9]

>  <energy_score>  (981) 
1574.8354722570186

>  <distance_score>  (981) 
13.166628400244168

>  <path>  (981) 
/opt/xchem-fragalysis-2/maxwin/BulkDock/SCRATCH/511023/C46906-P106/C46906-P106.minimised.mol

>  <scratch_subdir>  (981) 
/opt/xchem-fragalysis-2/maxwin/BulkDock/SCRATCH/511023/C46906-P106

>  <fragmenstein_runtime>  (981) 
6.008479356765747

>  <fragmenstein_outcome>  (981) 
too moved

>  <fragmenstein_mode>  (981) 
expansion

>  <fragmenstein_error>  (981) 


$$$$
C46906-P9
     RDKit          3D

 32 34  0  0  0  0  0  0  0  0999 V2000
    4.7333   -5.9620   16.5667 C   0  0  0  0  0  0  0  0  0  0  0  0
    4.1174   -4.8118   15.8403 C   0  0  0  0  0  0  0  0  0  0  0  0
    2.8549   -4.5546   15.7145 N   0  0  0  0  0  0  0  0  0  0  0  0
    2.0043   -5.4459   16.3036 C   0  0  0  0  0  0  0  0  0  0  0  0
    0.6847   -5.4685   16.2978 N   0  0  0  0  0  0  0  0  0  0  0  0
    0.2722   -6.5562   17.0610 C   0  0  0  0  0  0  0  0  0  0  0  0
   -1.2189   -6.7074   17.4070 C   0  0  0  0  0  0  0  0  0  0  0  0
   -2.0576   -7.9974   17.0214 C   0  0  0  0  0  0  0  0  0  0  0  0
   -3.3875   -7.6060   16.3297 C   0  0  0  0  0  0  0  0  0  0  0  0
   -4.3198   -8.7980   16.1304 C   0  0  0  0  0  0  0  0  0  0  0  0
   -4.6111   -9.5109   17.4480 C   0  0  0  0  0  0  0  0  0  0  0  0
   -3.3861   -9.9171   18.1288 N   0  0  0  0  0  0  0  0  0  0  0  0
   -2.4305   -8.8177   18.2828 C   0  0  0  0  0  0  0  0  0  0  0  0
    1.3997   -7.2012   17.5418 C   0  0  0  0  0  0  0  0  0  0  0  0
    2.4918   -6.5231   17.0378 N   0  0  0  0  0  0  0  0  0  0  0  0
    3.8555   -6.7761   17.1686 C   0  0  0  0  0  0  0  0  0  0  0  0
    5.8034   -6.0946   16.5817 H   0  0  0  0  0  0  0  0  0  0  0  0
    4.8195   -4.1137   15.3667 H   0  0  0  0  0  0  0  0  0  0  0  0
   -1.7121   -5.8388   16.9482 H   0  0  0  0  0  0  0  0  0  0  0  0
   -1.2969   -6.5400   18.4896 H   0  0  0  0  0  0  0  0  0  0  0  0
   -1.4813   -8.5988   16.3170 H   0  0  0  0  0  0  0  0  0  0  0  0
   -3.1709   -7.1435   15.3592 H   0  0  0  0  0  0  0  0  0  0  0  0
   -3.9057   -6.8476   16.9313 H   0  0  0  0  0  0  0  0  0  0  0  0
   -3.8264   -9.4458   15.4101 H   0  0  0  0  0  0  0  0  0  0  0  0
   -5.2589   -8.4613   15.6777 H   0  0  0  0  0  0  0  0  0  0  0  0
   -5.2635  -10.3744   17.2928 H   0  0  0  0  0  0  0  0  0  0  0  0
   -5.1702   -8.8350   18.1073 H   0  0  0  0  0  0  0  0  0  0  0  0
   -2.9637  -10.7439   17.7216 H   0  0  0  0  0  0  0  0  0  0  0  0
   -2.8466   -8.1370   19.0377 H   0  0  0  0  0  0  0  0  0  0  0  0
   -1.5129   -9.2055   18.7229 H   0  0  0  0  0  0  0  0  0  0  0  0
    1.5163   -8.0463   18.2048 H   0  0  0  0  0  0  0  0  0  0  0  0
    4.1423   -7.6526   17.7360 H   0  0  0  0  0  0  0  0  0  0  0  0
  1  2  1  0
  2  3  2  0
  3  4  1  0
  4  5  2  0
  5  6  1  0
  6  7  1  0
  7  8  1  0
  8  9  1  0
  9 10  1  0
 10 11  1  0
 11 12  1  0
 12 13  1  0
  6 14  2  0
 14 15  1  0
 15 16  1  0
 16  1  2  0
 15  4  1  0
 13  8  1  0
  1 17  1  0
  2 18  1  0
  7 19  1  0
  7 20  1  0
  8 21  1  0
  9 22  1  0
  9 23  1  0
 10 24  1  0
 10 25  1  0
 11 26  1  0
 11 27  1  0
 12 28  1  0
 13 29  1  0
 13 30  1  0
 14 31  1  0
 16 32  1  0
M  END
>  <Energy>  (982) 
36.839696290221809

>  <compound_id>  (982) 
46906

>  <target_id>  (982) 
1

>  <reference_id>  (982) 
9

>  <inspiration_ids>  (982) 
[106, 9]

>  <energy_score>  (982) 
-25.994371885911747

>  <distance_score>  (982) 
15.364459908207175

>  <path>  (982) 
/opt/xchem-fragalysis-2/maxwin/BulkDock/SCRATCH/511023/C46906-P9/C46906-P9.minimised.mol

>  <scratch_subdir>  (982) 
/opt/xchem-fragalysis-2/maxwin/BulkDock/SCRATCH/511023/C46906-P9

>  <fragmenstein_runtime>  (982) 
7.236581087112427

>  <fragmenstein_outcome>  (982) 
too moved

>  <fragmenstein_mode>  (982) 
expansion

>  <fragmenstein_error>  (982) 


$$$$
C46907-P106
     RDKit          3D

 32 34  0  0  0  0  0  0  0  0999 V2000
    5.7490   -8.9231   10.6403 C   0  0  0  0  0  0  0  0  0  0  0  0
    4.7029   -7.8873   10.3967 C   0  0  0  0  0  0  0  0  0  0  0  0
    3.4277   -8.0977   10.2521 N   0  0  0  0  0  0  0  0  0  0  0  0
    2.9991   -9.3978   10.4157 C   0  0  0  0  0  0  0  0  0  0  0  0
    1.7816   -9.9004   10.6485 N   0  0  0  0  0  0  0  0  0  0  0  0
    1.8862  -11.2416   11.1721 C   0  0  0  0  0  0  0  0  0  0  0  0
    0.3502  -12.2623   11.6594 C   0  0  0  0  0  0  0  0  0  0  0  0
   -0.2154  -13.9013   12.3978 C   0  0  0  0  0  0  0  0  0  0  0  0
   -0.9392  -14.8939   11.3931 C   0  0  0  0  0  0  0  0  0  0  0  0
   -2.6080  -14.9190   11.2734 C   0  0  0  0  0  0  0  0  0  0  0  0
   -3.6192  -14.6014   12.8943 C   0  0  0  0  0  0  0  0  0  0  0  0
   -2.5027  -14.7905   14.6400 C   0  0  0  0  0  0  0  0  0  0  0  0
   -1.0198  -13.8583   13.7960 N   0  0  0  0  0  0  0  0  0  0  0  0
    3.1643  -11.5955   10.6350 C   0  0  0  0  0  0  0  0  0  0  0  0
    3.9128  -10.4223   10.5677 N   0  0  0  0  0  0  0  0  0  0  0  0
    5.2875  -10.1850   10.6689 C   0  0  0  0  0  0  0  0  0  0  0  0
    6.7864   -8.6372   10.7265 H   0  0  0  0  0  0  0  0  0  0  0  0
    5.0813   -6.8557   10.3040 H   0  0  0  0  0  0  0  0  0  0  0  0
    0.4710  -11.9367   12.6625 H   0  0  0  0  0  0  0  0  0  0  0  0
    1.0062  -12.9779   11.1933 H   0  0  0  0  0  0  0  0  0  0  0  0
    0.7125  -14.3891   12.6658 H   0  0  0  0  0  0  0  0  0  0  0  0
   -0.4957  -15.8810   11.5701 H   0  0  0  0  0  0  0  0  0  0  0  0
   -0.5511  -14.8527   10.4354 H   0  0  0  0  0  0  0  0  0  0  0  0
   -3.0594  -15.7137   10.6925 H   0  0  0  0  0  0  0  0  0  0  0  0
   -2.8749  -14.4430   10.3404 H   0  0  0  0  0  0  0  0  0  0  0  0
   -4.5417  -15.1815   12.9154 H   0  0  0  0  0  0  0  0  0  0  0  0
   -4.0416  -13.6359   12.9034 H   0  0  0  0  0  0  0  0  0  0  0  0
   -2.5231  -15.8563   14.8654 H   0  0  0  0  0  0  0  0  0  0  0  0
   -2.7761  -14.4733   15.6963 H   0  0  0  0  0  0  0  0  0  0  0  0
   -0.3416  -13.7531   14.5107 H   0  0  0  0  0  0  0  0  0  0  0  0
    3.6373  -12.5518   10.4691 H   0  0  0  0  0  0  0  0  0  0  0  0
    5.9243  -11.0484   10.8040 H   0  0  0  0  0  0  0  0  0  0  0  0
  1  2  1  0
  2  3  2  0
  3  4  1  0
  4  5  2  0
  5  6  1  0
  6  7  1  0
  7  8  1  0
  8  9  1  0
  9 10  1  0
 10 11  1  0
 11 12  1  0
 12 13  1  0
  6 14  2  0
 14 15  1  0
 15 16  1  0
 16  1  2  0
 15  4  1  0
 13  8  1  0
  1 17  1  0
  2 18  1  0
  7 19  1  0
  7 20  1  0
  8 21  1  0
  9 22  1  0
  9 23  1  0
 10 24  1  0
 10 25  1  0
 11 26  1  0
 11 27  1  0
 12 28  1  0
 12 29  1  0
 13 30  1  0
 14 31  1  0
 16 32  1  0
M  END
>  <Energy>  (983) 
434.255860787769

>  <compound_id>  (983) 
46907

>  <target_id>  (983) 
1

>  <reference_id>  (983) 
106

>  <inspiration_ids>  (983) 
[106, 9]

>  <energy_score>  (983) 
360.7687398090138

>  <distance_score>  (983) 
14.71323548400929

>  <path>  (983) 
/opt/xchem-fragalysis-2/maxwin/BulkDock/SCRATCH/511023/C46907-P106/C46907-P106.minimised.mol

>  <scratch_subdir>  (983) 
/opt/xchem-fragalysis-2/maxwin/BulkDock/SCRATCH/511023/C46907-P106

>  <fragmenstein_runtime>  (983) 
7.1163694858551025

>  <fragmenstein_outcome>  (983) 
too moved

>  <fragmenstein_mode>  (983) 
expansion

>  <fragmenstein_error>  (983) 


$$$$
C46907-P9
     RDKit          3D

 32 34  0  0  0  0  0  0  0  0999 V2000
    3.9817   -5.9518   18.9587 C   0  0  0  0  0  0  0  0  0  0  0  0
    3.7684   -5.9990   17.4848 C   0  0  0  0  0  0  0  0  0  0  0  0
    2.7394   -6.5011   16.8697 N   0  0  0  0  0  0  0  0  0  0  0  0
    1.7457   -7.0297   17.6591 C   0  0  0  0  0  0  0  0  0  0  0  0
    0.5853   -7.5784   17.3198 N   0  0  0  0  0  0  0  0  0  0  0  0
   -0.0945   -7.9659   18.4890 C   0  0  0  0  0  0  0  0  0  0  0  0
   -1.5950   -8.4718   18.3997 C   0  0  0  0  0  0  0  0  0  0  0  0
   -2.2436   -9.8026   19.1080 C   0  0  0  0  0  0  0  0  0  0  0  0
   -3.7669   -9.5426   19.3439 C   0  0  0  0  0  0  0  0  0  0  0  0
   -4.5413  -10.7040   19.9922 C   0  0  0  0  0  0  0  0  0  0  0  0
   -4.3736  -11.9905   19.2096 C   0  0  0  0  0  0  0  0  0  0  0  0
   -2.8898  -12.2205   18.9712 C   0  0  0  0  0  0  0  0  0  0  0  0
   -2.2121  -11.0697   18.3355 N   0  0  0  0  0  0  0  0  0  0  0  0
    0.7211   -7.6218   19.5616 C   0  0  0  0  0  0  0  0  0  0  0  0
    1.8720   -7.0369   19.0442 N   0  0  0  0  0  0  0  0  0  0  0  0
    2.9915   -6.4961   19.6845 C   0  0  0  0  0  0  0  0  0  0  0  0
    4.8727   -5.4993   19.3679 H   0  0  0  0  0  0  0  0  0  0  0  0
    4.5824   -5.5698   16.8788 H   0  0  0  0  0  0  0  0  0  0  0  0
   -2.1651   -7.6127   18.7829 H   0  0  0  0  0  0  0  0  0  0  0  0
   -1.8424   -8.5259   17.3304 H   0  0  0  0  0  0  0  0  0  0  0  0
   -1.7401   -9.9451   20.0718 H   0  0  0  0  0  0  0  0  0  0  0  0
   -3.8802   -8.6596   19.9851 H   0  0  0  0  0  0  0  0  0  0  0  0
   -4.2432   -9.2943   18.3853 H   0  0  0  0  0  0  0  0  0  0  0  0
   -5.6035  -10.4451   20.0659 H   0  0  0  0  0  0  0  0  0  0  0  0
   -4.1756  -10.8456   21.0169 H   0  0  0  0  0  0  0  0  0  0  0  0
   -4.8034  -12.8315   19.7644 H   0  0  0  0  0  0  0  0  0  0  0  0
   -4.9290  -11.9054   18.2729 H   0  0  0  0  0  0  0  0  0  0  0  0
   -2.3987  -12.4369   19.9271 H   0  0  0  0  0  0  0  0  0  0  0  0
   -2.7543  -13.1035   18.3380 H   0  0  0  0  0  0  0  0  0  0  0  0
   -1.2419  -11.3539   18.2037 H   0  0  0  0  0  0  0  0  0  0  0  0
    0.5690   -7.6941   20.6284 H   0  0  0  0  0  0  0  0  0  0  0  0
    3.0022   -6.5303   20.7663 H   0  0  0  0  0  0  0  0  0  0  0  0
  1  2  1  0
  2  3  2  0
  3  4  1  0
  4  5  2  0
  5  6  1  0
  6  7  1  0
  7  8  1  0
  8  9  1  0
  9 10  1  0
 10 11  1  0
 11 12  1  0
 12 13  1  0
  6 14  2  0
 14 15  1  0
 15 16  1  0
 16  1  2  0
 15  4  1  0
 13  8  1  0
  1 17  1  0
  2 18  1  0
  7 19  1  0
  7 20  1  0
  8 21  1  0
  9 22  1  0
  9 23  1  0
 10 24  1  0
 10 25  1  0
 11 26  1  0
 11 27  1  0
 12 28  1  0
 12 29  1  0
 13 30  1  0
 14 31  1  0
 16 32  1  0
M  END
>  <Energy>  (984) 
57.796217101315243

>  <compound_id>  (984) 
46907

>  <target_id>  (984) 
1

>  <reference_id>  (984) 
9

>  <inspiration_ids>  (984) 
[106, 9]

>  <energy_score>  (984) 
-15.690903877441272

>  <distance_score>  (984) 
15.239610482135497

>  <path>  (984) 
/opt/xchem-fragalysis-2/maxwin/BulkDock/SCRATCH/511023/C46907-P9/C46907-P9.minimised.mol

>  <scratch_subdir>  (984) 
/opt/xchem-fragalysis-2/maxwin/BulkDock/SCRATCH/511023/C46907-P9

>  <fragmenstein_runtime>  (984) 
6.790703535079956

>  <fragmenstein_outcome>  (984) 
too moved

>  <fragmenstein_mode>  (984) 
expansion

>  <fragmenstein_error>  (984) 


$$$$
C46919-P106
     RDKit          3D

 40 42  0  0  0  0  0  0  0  0999 V2000
    3.8338  -10.6942   14.4328 O   0  0  0  0  0  0  0  0  0  0  0  0
    3.8933  -10.0306   13.4288 C   0  0  0  0  0  0  0  0  0  0  0  0
    2.6210  -10.5708   11.8732 N   0  0  0  0  0  0  0  0  0  0  0  0
    0.8597  -12.1154   11.7564 S   0  0  0  0  0  0  0  0  0  0  0  0
   -0.1629  -11.3666   11.1173 O   0  0  0  0  0  0  0  0  0  0  0  0
    0.4747  -12.3086   13.1650 O   0  0  0  0  0  0  0  0  0  0  0  0
    0.5180  -14.2989   11.5874 C   0  0  0  0  0  0  0  0  0  0  0  0
   -0.6840  -15.2485   11.0810 C   0  0  0  0  0  0  0  0  0  0  0  0
   -0.6916  -16.7003   10.2228 C   0  0  0  0  0  0  0  0  0  0  0  0
   -2.1359  -17.0700    9.7285 C   0  0  0  0  0  0  0  0  0  0  0  0
   -2.4130  -18.5379   10.0655 C   0  0  0  0  0  0  0  0  0  0  0  0
   -1.0364  -19.1492   10.1838 C   0  0  0  0  0  0  0  0  0  0  0  0
   -0.1717  -18.0440   10.7993 C   0  0  0  0  0  0  0  0  0  0  0  0
    5.0880   -8.4033   13.7476 C   0  0  0  0  0  0  0  0  0  0  0  0
    6.4287   -7.9672   13.5180 C   0  0  0  0  0  0  0  0  0  0  0  0
    7.1597   -7.8061   14.8535 N   0  0  0  0  0  0  0  0  0  0  0  0
    6.4113   -7.2807   15.8355 C   0  0  0  0  0  0  0  0  0  0  0  0
    5.5090   -7.3580   17.1962 N   0  0  0  0  0  0  0  0  0  0  0  0
    5.3874   -6.4952   18.0619 C   0  0  0  0  0  0  0  0  0  0  0  0
    6.3361   -5.8032   17.4788 C   0  0  0  0  0  0  0  0  0  0  0  0
    6.4928   -5.8949   16.0582 C   0  0  0  0  0  0  0  0  0  0  0  0
    5.9378   -6.9577   14.6945 N   0  0  0  0  0  0  0  0  0  0  0  0
    2.7046   -9.8953   11.1320 H   0  0  0  0  0  0  0  0  0  0  0  0
    1.1308  -14.9850   11.0405 H   0  0  0  0  0  0  0  0  0  0  0  0
    0.6174  -14.5044   12.6559 H   0  0  0  0  0  0  0  0  0  0  0  0
   -1.6699  -14.8149   11.0870 H   0  0  0  0  0  0  0  0  0  0  0  0
   -0.4498  -15.8355   11.9316 H   0  0  0  0  0  0  0  0  0  0  0  0
    0.0015  -16.5984    9.3840 H   0  0  0  0  0  0  0  0  0  0  0  0
   -2.9093  -16.4247   10.1569 H   0  0  0  0  0  0  0  0  0  0  0  0
   -2.1864  -16.9410    8.6407 H   0  0  0  0  0  0  0  0  0  0  0  0
   -2.9597  -18.6315   11.0085 H   0  0  0  0  0  0  0  0  0  0  0  0
   -3.0157  -19.0254    9.2928 H   0  0  0  0  0  0  0  0  0  0  0  0
   -0.6525  -19.4031    9.1885 H   0  0  0  0  0  0  0  0  0  0  0  0
   -1.0331  -20.0607   10.7886 H   0  0  0  0  0  0  0  0  0  0  0  0
    0.8820  -18.1943   10.5337 H   0  0  0  0  0  0  0  0  0  0  0  0
   -0.2044  -18.1172   11.8715 H   0  0  0  0  0  0  0  0  0  0  0  0
    7.0556   -8.0259   12.6187 H   0  0  0  0  0  0  0  0  0  0  0  0
    4.9575   -6.1930   19.0067 H   0  0  0  0  0  0  0  0  0  0  0  0
    6.7537   -5.3071   18.3176 H   0  0  0  0  0  0  0  0  0  0  0  0
    7.4414   -5.4420   15.8480 H   0  0  0  0  0  0  0  0  0  0  0  0
  1  2  2  0
  2  3  1  0
  3  4  1  0
  4  5  2  0
  4  6  2  0
  4  7  1  0
  7  8  1  0
  8  9  1  0
  9 10  1  0
 10 11  1  0
 11 12  1  0
 12 13  1  0
  2 14  1  0
 14 15  2  0
 15 16  1  0
 16 17  2  0
 17 18  1  0
 18 19  2  0
 19 20  1  0
 20 21  2  0
 21 22  1  0
 13  9  1  0
 22 14  1  0
 22 17  1  0
  3 23  1  0
  7 24  1  0
  7 25  1  0
  8 26  1  0
  8 27  1  0
  9 28  1  0
 10 29  1  0
 10 30  1  0
 11 31  1  0
 11 32  1  0
 12 33  1  0
 12 34  1  0
 13 35  1  0
 13 36  1  0
 15 37  1  0
 19 38  1  0
 20 39  1  0
 21 40  1  0
M  END
>  <Energy>  (985) 
1216.2606877066592

>  <compound_id>  (985) 
46919

>  <target_id>  (985) 
1

>  <reference_id>  (985) 
106

>  <inspiration_ids>  (985) 
[106, 9]

>  <energy_score>  (985) 
1248.6805957890572

>  <distance_score>  (985) 
11.687227987973253

>  <path>  (985) 
/opt/xchem-fragalysis-2/maxwin/BulkDock/SCRATCH/511023/C46919-P106/C46919-P106.minimised.mol

>  <scratch_subdir>  (985) 
/opt/xchem-fragalysis-2/maxwin/BulkDock/SCRATCH/511023/C46919-P106

>  <fragmenstein_runtime>  (985) 
10.902410745620728

>  <fragmenstein_outcome>  (985) 
too moved

>  <fragmenstein_mode>  (985) 
expansion

>  <fragmenstein_error>  (985) 


$$$$
C46919-P9
     RDKit          3D

 40 42  0  0  0  0  0  0  0  0999 V2000
   -2.6781   -8.7079   19.7644 O   0  0  0  0  0  0  0  0  0  0  0  0
   -2.1754   -9.6051   20.3851 C   0  0  0  0  0  0  0  0  0  0  0  0
   -2.6050  -11.0563   20.5401 N   0  0  0  0  0  0  0  0  0  0  0  0
   -3.9755  -11.8569   19.9947 S   0  0  0  0  0  0  0  0  0  0  0  0
   -4.6232  -10.9862   19.0377 O   0  0  0  0  0  0  0  0  0  0  0  0
   -4.6642  -12.2139   21.2219 O   0  0  0  0  0  0  0  0  0  0  0  0
   -3.6632  -13.5203   19.0960 C   0  0  0  0  0  0  0  0  0  0  0  0
   -5.0406  -14.1817   18.6703 C   0  0  0  0  0  0  0  0  0  0  0  0
   -4.9881  -15.4361   17.7487 C   0  0  0  0  0  0  0  0  0  0  0  0
   -4.7135  -16.7612   18.4701 C   0  0  0  0  0  0  0  0  0  0  0  0
   -6.0727  -17.2888   18.9361 C   0  0  0  0  0  0  0  0  0  0  0  0
   -7.1224  -16.5873   18.0812 C   0  0  0  0  0  0  0  0  0  0  0  0
   -6.3451  -15.7388   17.0802 C   0  0  0  0  0  0  0  0  0  0  0  0
   -0.9818   -9.2015   21.2279 C   0  0  0  0  0  0  0  0  0  0  0  0
   -0.2575   -9.8852   22.1934 C   0  0  0  0  0  0  0  0  0  0  0  0
    0.7794   -9.1641   22.7330 N   0  0  0  0  0  0  0  0  0  0  0  0
    0.6683   -7.9541   22.2381 C   0  0  0  0  0  0  0  0  0  0  0  0
    1.3923   -6.8353   22.5788 N   0  0  0  0  0  0  0  0  0  0  0  0
    1.2176   -5.7811   21.8441 C   0  0  0  0  0  0  0  0  0  0  0  0
    0.2357   -5.6605   20.7437 C   0  0  0  0  0  0  0  0  0  0  0  0
   -0.5297   -6.7464   20.5425 C   0  0  0  0  0  0  0  0  0  0  0  0
   -0.3239   -7.9316   21.2481 N   0  0  0  0  0  0  0  0  0  0  0  0
   -1.9963  -11.5152   21.2031 H   0  0  0  0  0  0  0  0  0  0  0  0
   -3.1319  -14.1571   19.8077 H   0  0  0  0  0  0  0  0  0  0  0  0
   -3.0367  -13.2932   18.2317 H   0  0  0  0  0  0  0  0  0  0  0  0
   -5.6065  -14.4096   19.5819 H   0  0  0  0  0  0  0  0  0  0  0  0
   -5.6137  -13.4041   18.1499 H   0  0  0  0  0  0  0  0  0  0  0  0
   -4.2321  -15.2528   16.9771 H   0  0  0  0  0  0  0  0  0  0  0  0
   -4.2791  -17.4760   17.7598 H   0  0  0  0  0  0  0  0  0  0  0  0
   -4.0079  -16.6540   19.2996 H   0  0  0  0  0  0  0  0  0  0  0  0
   -6.1279  -18.3772   18.8525 H   0  0  0  0  0  0  0  0  0  0  0  0
   -6.2317  -17.0414   19.9922 H   0  0  0  0  0  0  0  0  0  0  0  0
   -7.7967  -17.2885   17.5866 H   0  0  0  0  0  0  0  0  0  0  0  0
   -7.7399  -15.9416   18.7168 H   0  0  0  0  0  0  0  0  0  0  0  0
   -6.1742  -16.3090   16.1609 H   0  0  0  0  0  0  0  0  0  0  0  0
   -6.8932  -14.8340   16.7992 H   0  0  0  0  0  0  0  0  0  0  0  0
   -0.4411  -10.8814   22.5684 H   0  0  0  0  0  0  0  0  0  0  0  0
    1.8048   -4.8728   22.0579 H   0  0  0  0  0  0  0  0  0  0  0  0
    0.1050   -4.7136   20.2415 H   0  0  0  0  0  0  0  0  0  0  0  0
   -1.3662   -6.7463   19.8692 H   0  0  0  0  0  0  0  0  0  0  0  0
  1  2  2  0
  2  3  1  0
  3  4  1  0
  4  5  2  0
  4  6  2  0
  4  7  1  0
  7  8  1  0
  8  9  1  0
  9 10  1  0
 10 11  1  0
 11 12  1  0
 12 13  1  0
  2 14  1  0
 14 15  2  0
 15 16  1  0
 16 17  2  0
 17 18  1  0
 18 19  2  0
 19 20  1  0
 20 21  2  0
 21 22  1  0
 13  9  1  0
 22 14  1  0
 22 17  1  0
  3 23  1  0
  7 24  1  0
  7 25  1  0
  8 26  1  0
  8 27  1  0
  9 28  1  0
 10 29  1  0
 10 30  1  0
 11 31  1  0
 11 32  1  0
 12 33  1  0
 12 34  1  0
 13 35  1  0
 13 36  1  0
 15 37  1  0
 19 38  1  0
 20 39  1  0
 21 40  1  0
M  END
>  <Energy>  (986) 
-84.400005078595825

>  <compound_id>  (986) 
46919

>  <target_id>  (986) 
1

>  <reference_id>  (986) 
9

>  <inspiration_ids>  (986) 
[106, 9]

>  <energy_score>  (986) 
-51.980096996196664

>  <distance_score>  (986) 
14.330177226768978

>  <path>  (986) 
/opt/xchem-fragalysis-2/maxwin/BulkDock/SCRATCH/511023/C46919-P9/C46919-P9.minimised.mol

>  <scratch_subdir>  (986) 
/opt/xchem-fragalysis-2/maxwin/BulkDock/SCRATCH/511023/C46919-P9

>  <fragmenstein_runtime>  (986) 
21.066148042678833

>  <fragmenstein_outcome>  (986) 
too moved

>  <fragmenstein_mode>  (986) 
expansion

>  <fragmenstein_error>  (986) 


$$$$
C46920-P106
     RDKit          3D

 43 45  0  0  0  0  0  0  0  0999 V2000
    0.7831   -9.7300    9.7058 O   0  0  0  0  0  0  0  0  0  0  0  0
    1.2511   -9.6497   10.7963 C   0  0  0  0  0  0  0  0  0  0  0  0
    1.1530  -11.0754   11.9460 N   0  0  0  0  0  0  0  0  0  0  0  0
    0.1445  -12.9259   11.7948 S   0  0  0  0  0  0  0  0  0  0  0  0
    0.9894  -13.9499   12.2828 O   0  0  0  0  0  0  0  0  0  0  0  0
   -0.6088  -11.7006   11.9912 O   0  0  0  0  0  0  0  0  0  0  0  0
   -1.1706  -13.8258   13.5259 C   0  0  0  0  0  0  0  0  0  0  0  0
   -3.2905  -14.1923   13.5624 C   0  0  0  0  0  0  0  0  0  0  0  0
   -4.0108  -15.1602   14.7821 C   0  0  0  0  0  0  0  0  0  0  0  0
   -4.2901  -16.6770   14.5643 C   0  0  0  0  0  0  0  0  0  0  0  0
   -5.2694  -16.9680   13.4288 C   0  0  0  0  0  0  0  0  0  0  0  0
   -6.6273  -16.3384   13.7106 C   0  0  0  0  0  0  0  0  0  0  0  0
   -6.4888  -14.8637   14.0498 C   0  0  0  0  0  0  0  0  0  0  0  0
   -5.4331  -14.6026   15.1328 C   0  0  0  0  0  0  0  0  0  0  0  0
    1.8112   -7.8489   11.1171 C   0  0  0  0  0  0  0  0  0  0  0  0
    3.1053   -7.3040   11.3937 C   0  0  0  0  0  0  0  0  0  0  0  0
    3.3697   -5.9938   11.3203 N   0  0  0  0  0  0  0  0  0  0  0  0
    2.2318   -5.5173   10.9308 C   0  0  0  0  0  0  0  0  0  0  0  0
    1.9643   -4.1945   10.7561 N   0  0  0  0  0  0  0  0  0  0  0  0
    0.9765   -3.9443    9.9676 C   0  0  0  0  0  0  0  0  0  0  0  0
    0.1325   -4.9686    9.3007 C   0  0  0  0  0  0  0  0  0  0  0  0
    0.3404   -6.2498    9.6477 C   0  0  0  0  0  0  0  0  0  0  0  0
    1.3411   -6.5752   10.5530 N   0  0  0  0  0  0  0  0  0  0  0  0
    1.6715  -10.8555   12.7733 H   0  0  0  0  0  0  0  0  0  0  0  0
   -0.9096  -12.9249   14.0005 H   0  0  0  0  0  0  0  0  0  0  0  0
   -0.4456  -14.6141   13.5449 H   0  0  0  0  0  0  0  0  0  0  0  0
   -4.0457  -13.3920   13.5722 H   0  0  0  0  0  0  0  0  0  0  0  0
   -3.6443  -14.6049   12.5669 H   0  0  0  0  0  0  0  0  0  0  0  0
   -3.3800  -15.0511   15.6733 H   0  0  0  0  0  0  0  0  0  0  0  0
   -4.7208  -17.0621   15.4986 H   0  0  0  0  0  0  0  0  0  0  0  0
   -3.3935  -17.2777   14.4623 H   0  0  0  0  0  0  0  0  0  0  0  0
   -5.3802  -18.0461   13.2959 H   0  0  0  0  0  0  0  0  0  0  0  0
   -4.8718  -16.5816   12.4838 H   0  0  0  0  0  0  0  0  0  0  0  0
   -7.1204  -16.8413   14.5465 H   0  0  0  0  0  0  0  0  0  0  0  0
   -7.2787  -16.4502   12.8416 H   0  0  0  0  0  0  0  0  0  0  0  0
   -6.2254  -14.3065   13.1429 H   0  0  0  0  0  0  0  0  0  0  0  0
   -7.4570  -14.4737   14.3847 H   0  0  0  0  0  0  0  0  0  0  0  0
   -5.7718  -15.0613   16.0717 H   0  0  0  0  0  0  0  0  0  0  0  0
   -5.3857  -13.5284   15.3348 H   0  0  0  0  0  0  0  0  0  0  0  0
    3.6948   -7.9294   11.9755 H   0  0  0  0  0  0  0  0  0  0  0  0
    0.7033   -2.8977    9.7537 H   0  0  0  0  0  0  0  0  0  0  0  0
   -0.6089   -4.6519    8.5803 H   0  0  0  0  0  0  0  0  0  0  0  0
   -0.2098   -7.0632    9.1930 H   0  0  0  0  0  0  0  0  0  0  0  0
  1  2  2  0
  2  3  1  0
  3  4  1  0
  4  5  2  0
  4  6  2  0
  4  7  1  0
  7  8  1  0
  8  9  1  0
  9 10  1  0
 10 11  1  0
 11 12  1  0
 12 13  1  0
 13 14  1  0
  2 15  1  0
 15 16  2  0
 16 17  1  0
 17 18  2  0
 18 19  1  0
 19 20  2  0
 20 21  1  0
 21 22  2  0
 22 23  1  0
 14  9  1  0
 23 15  1  0
 23 18  1  0
  3 24  1  0
  7 25  1  0
  7 26  1  0
  8 27  1  0
  8 28  1  0
  9 29  1  0
 10 30  1  0
 10 31  1  0
 11 32  1  0
 11 33  1  0
 12 34  1  0
 12 35  1  0
 13 36  1  0
 13 37  1  0
 14 38  1  0
 14 39  1  0
 16 40  1  0
 20 41  1  0
 21 42  1  0
 22 43  1  0
M  END
>  <Energy>  (987) 
488.20567196719611

>  <compound_id>  (987) 
46920

>  <target_id>  (987) 
1

>  <reference_id>  (987) 
106

>  <inspiration_ids>  (987) 
[106, 9]

>  <energy_score>  (987) 
531.1013309022627

>  <distance_score>  (987) 
13.539503594235132

>  <path>  (987) 
/opt/xchem-fragalysis-2/maxwin/BulkDock/SCRATCH/511023/C46920-P106/C46920-P106.minimised.mol

>  <scratch_subdir>  (987) 
/opt/xchem-fragalysis-2/maxwin/BulkDock/SCRATCH/511023/C46920-P106

>  <fragmenstein_runtime>  (987) 
14.167601346969604

>  <fragmenstein_outcome>  (987) 
too moved

>  <fragmenstein_mode>  (987) 
expansion

>  <fragmenstein_error>  (987) 


$$$$
C46920-P9
     RDKit          3D

 43 45  0  0  0  0  0  0  0  0999 V2000
    0.3593  -12.8134   11.8657 O   0  0  0  0  0  0  0  0  0  0  0  0
    1.3296  -13.2847   11.2935 C   0  0  0  0  0  0  0  0  0  0  0  0
    1.4990  -15.1479   10.7759 N   0  0  0  0  0  0  0  0  0  0  0  0
    0.4309  -16.3768   10.8505 S   0  0  0  0  0  0  0  0  0  0  0  0
    0.7949  -16.7249    9.4531 O   0  0  0  0  0  0  0  0  0  0  0  0
   -0.8869  -15.8136   10.9567 O   0  0  0  0  0  0  0  0  0  0  0  0
    0.4557  -18.2751   11.2571 C   0  0  0  0  0  0  0  0  0  0  0  0
   -0.8540  -18.9257   10.6179 C   0  0  0  0  0  0  0  0  0  0  0  0
   -1.7532  -19.9500   11.3791 C   0  0  0  0  0  0  0  0  0  0  0  0
   -1.0534  -21.2998   11.6021 C   0  0  0  0  0  0  0  0  0  0  0  0
   -1.9963  -22.3967   12.1096 C   0  0  0  0  0  0  0  0  0  0  0  0
   -3.1920  -22.5745   11.1798 C   0  0  0  0  0  0  0  0  0  0  0  0
   -3.9613  -21.2674   11.0542 C   0  0  0  0  0  0  0  0  0  0  0  0
   -3.0572  -20.1492   10.5504 C   0  0  0  0  0  0  0  0  0  0  0  0
    2.7911  -12.1020   10.6880 C   0  0  0  0  0  0  0  0  0  0  0  0
    2.7874  -11.2105    9.7102 C   0  0  0  0  0  0  0  0  0  0  0  0
    2.1002  -10.3699   10.5611 N   0  0  0  0  0  0  0  0  0  0  0  0
    3.1085   -9.9486   11.3065 C   0  0  0  0  0  0  0  0  0  0  0  0
    3.5567   -8.5143   11.8548 N   0  0  0  0  0  0  0  0  0  0  0  0
    4.1761   -8.6605   13.2182 C   0  0  0  0  0  0  0  0  0  0  0  0
    4.6554  -10.0448   13.7148 C   0  0  0  0  0  0  0  0  0  0  0  0
    5.1969  -10.8189   12.7311 C   0  0  0  0  0  0  0  0  0  0  0  0
    4.0531  -10.9386   11.1632 N   0  0  0  0  0  0  0  0  0  0  0  0
    2.3603  -15.2794   10.2344 H   0  0  0  0  0  0  0  0  0  0  0  0
    0.7106  -18.5879   12.2580 H   0  0  0  0  0  0  0  0  0  0  0  0
    1.3148  -18.6429   10.6751 H   0  0  0  0  0  0  0  0  0  0  0  0
   -0.5257  -19.4065    9.6849 H   0  0  0  0  0  0  0  0  0  0  0  0
   -1.5143  -18.1165   10.2874 H   0  0  0  0  0  0  0  0  0  0  0  0
   -2.0269  -19.5316   12.3549 H   0  0  0  0  0  0  0  0  0  0  0  0
   -0.2294  -21.1715   12.3140 H   0  0  0  0  0  0  0  0  0  0  0  0
   -0.6011  -21.6373   10.6605 H   0  0  0  0  0  0  0  0  0  0  0  0
   -2.3279  -22.1408   13.1217 H   0  0  0  0  0  0  0  0  0  0  0  0
   -1.4461  -23.3416   12.1826 H   0  0  0  0  0  0  0  0  0  0  0  0
   -2.8371  -22.8846   10.1886 H   0  0  0  0  0  0  0  0  0  0  0  0
   -3.8421  -23.3803   11.5326 H   0  0  0  0  0  0  0  0  0  0  0  0
   -4.7935  -21.4080   10.3622 H   0  0  0  0  0  0  0  0  0  0  0  0
   -4.3868  -20.9572   12.0114 H   0  0  0  0  0  0  0  0  0  0  0  0
   -3.6250  -19.2105   10.5355 H   0  0  0  0  0  0  0  0  0  0  0  0
   -2.7894  -20.3657    9.5074 H   0  0  0  0  0  0  0  0  0  0  0  0
    2.5921  -11.3236    8.6471 H   0  0  0  0  0  0  0  0  0  0  0  0
    4.4490   -7.7330   13.7243 H   0  0  0  0  0  0  0  0  0  0  0  0
    4.6225  -10.4800   14.6822 H   0  0  0  0  0  0  0  0  0  0  0  0
    5.6146  -11.7376   13.1804 H   0  0  0  0  0  0  0  0  0  0  0  0
  1  2  2  0
  2  3  1  0
  3  4  1  0
  4  5  2  0
  4  6  2  0
  4  7  1  0
  7  8  1  0
  8  9  1  0
  9 10  1  0
 10 11  1  0
 11 12  1  0
 12 13  1  0
 13 14  1  0
  2 15  1  0
 15 16  2  0
 16 17  1  0
 17 18  2  0
 18 19  1  0
 19 20  2  0
 20 21  1  0
 21 22  2  0
 22 23  1  0
 14  9  1  0
 23 15  1  0
 23 18  1  0
  3 24  1  0
  7 25  1  0
  7 26  1  0
  8 27  1  0
  8 28  1  0
  9 29  1  0
 10 30  1  0
 10 31  1  0
 11 32  1  0
 11 33  1  0
 12 34  1  0
 12 35  1  0
 13 36  1  0
 13 37  1  0
 14 38  1  0
 14 39  1  0
 16 40  1  0
 20 41  1  0
 21 42  1  0
 22 43  1  0
M  END
>  <Energy>  (988) 
432.46998840193544

>  <compound_id>  (988) 
46920

>  <target_id>  (988) 
1

>  <reference_id>  (988) 
9

>  <inspiration_ids>  (988) 
[106, 9]

>  <energy_score>  (988) 
475.3656473370154

>  <distance_score>  (988) 
12.817281989963584

>  <path>  (988) 
/opt/xchem-fragalysis-2/maxwin/BulkDock/SCRATCH/511023/C46920-P9/C46920-P9.minimised.mol

>  <scratch_subdir>  (988) 
/opt/xchem-fragalysis-2/maxwin/BulkDock/SCRATCH/511023/C46920-P9

>  <fragmenstein_runtime>  (988) 
11.30678915977478

>  <fragmenstein_outcome>  (988) 
too moved

>  <fragmenstein_mode>  (988) 
expansion

>  <fragmenstein_error>  (988) 


$$$$
C46921-P106
     RDKit          3D

 40 42  0  0  0  0  0  0  0  0999 V2000
    1.7995  -11.3595    6.9837 C   0  0  0  0  0  0  0  0  0  0  0  0
    2.4787  -12.6232    7.4977 C   0  0  0  0  0  0  0  0  0  0  0  0
    2.4704  -12.7958    9.0288 C   0  0  0  0  0  0  0  0  0  0  0  0
    1.0795  -12.9031    9.5970 N   0  0  0  0  0  0  0  0  0  0  0  0
    0.1297  -14.1039    9.3163 C   0  0  0  0  0  0  0  0  0  0  0  0
    0.5854  -15.5637    9.6725 C   0  0  0  0  0  0  0  0  0  0  0  0
    0.1598  -17.0331    8.6240 S   0  0  0  0  0  0  0  0  0  0  0  0
   -1.6590  -17.1936    8.6920 C   0  0  0  0  0  0  0  0  0  0  0  0
   -2.4478  -15.9689    9.0988 C   0  0  0  0  0  0  0  0  0  0  0  0
   -2.4086  -14.6244    7.8897 S   0  0  0  0  0  0  0  0  0  0  0  0
   -0.6492  -14.0238    7.9754 C   0  0  0  0  0  0  0  0  0  0  0  0
    3.4018  -11.6676    9.7165 C   0  0  0  0  0  0  0  0  0  0  0  0
    3.1914  -10.3270   10.0206 C   0  0  0  0  0  0  0  0  0  0  0  0
    4.3737   -9.8246   10.5480 N   0  0  0  0  0  0  0  0  0  0  0  0
    4.6943   -8.5586   11.0460 C   0  0  0  0  0  0  0  0  0  0  0  0
    5.9048   -8.3377   11.5786 C   0  0  0  0  0  0  0  0  0  0  0  0
    6.8336   -9.4954   11.5267 C   0  0  0  0  0  0  0  0  0  0  0  0
    6.5710  -10.6646   11.0253 N   0  0  0  0  0  0  0  0  0  0  0  0
    5.3005  -10.8606   10.5403 C   0  0  0  0  0  0  0  0  0  0  0  0
    4.7405  -11.9547   10.0361 N   0  0  0  0  0  0  0  0  0  0  0  0
    2.3614  -10.4633    7.2613 H   0  0  0  0  0  0  0  0  0  0  0  0
    0.7802  -11.2554    7.3636 H   0  0  0  0  0  0  0  0  0  0  0  0
    1.7488  -11.3848    5.8902 H   0  0  0  0  0  0  0  0  0  0  0  0
    3.5170  -12.6220    7.1413 H   0  0  0  0  0  0  0  0  0  0  0  0
    2.0050  -13.4939    7.0314 H   0  0  0  0  0  0  0  0  0  0  0  0
    2.9902  -13.7357    9.2472 H   0  0  0  0  0  0  0  0  0  0  0  0
    1.1731  -12.8195   10.6098 H   0  0  0  0  0  0  0  0  0  0  0  0
   -0.6314  -13.8967   10.0752 H   0  0  0  0  0  0  0  0  0  0  0  0
    1.6767  -15.5787    9.6252 H   0  0  0  0  0  0  0  0  0  0  0  0
    0.3211  -15.7955   10.7104 H   0  0  0  0  0  0  0  0  0  0  0  0
   -1.9819  -17.5319    7.6999 H   0  0  0  0  0  0  0  0  0  0  0  0
   -1.8808  -18.0291    9.3581 H   0  0  0  0  0  0  0  0  0  0  0  0
   -3.5012  -16.2505    9.2016 H   0  0  0  0  0  0  0  0  0  0  0  0
   -2.1237  -15.5677   10.0578 H   0  0  0  0  0  0  0  0  0  0  0  0
   -0.7374  -12.9696    7.6923 H   0  0  0  0  0  0  0  0  0  0  0  0
   -0.0868  -14.4997    7.1659 H   0  0  0  0  0  0  0  0  0  0  0  0
    2.3166   -9.7024    9.9138 H   0  0  0  0  0  0  0  0  0  0  0  0
    3.9164   -7.8073   11.0086 H   0  0  0  0  0  0  0  0  0  0  0  0
    6.2195   -7.4135   12.0223 H   0  0  0  0  0  0  0  0  0  0  0  0
    7.8364   -9.3133   11.9467 H   0  0  0  0  0  0  0  0  0  0  0  0
  1  2  1  0
  2  3  1  0
  3  4  1  0
  4  5  1  0
  5  6  1  0
  6  7  1  0
  7  8  1  0
  8  9  1  0
  9 10  1  0
 10 11  1  0
  3 12  1  0
 12 13  2  0
 13 14  1  0
 14 15  1  0
 15 16  2  0
 16 17  1  0
 17 18  2  0
 18 19  1  0
 19 20  2  0
 11  5  1  0
 20 12  1  0
 19 14  1  0
  1 21  1  0
  1 22  1  0
  1 23  1  0
  2 24  1  0
  2 25  1  0
  3 26  1  0
  4 27  1  0
  5 28  1  0
  6 29  1  0
  6 30  1  0
  8 31  1  0
  8 32  1  0
  9 33  1  0
  9 34  1  0
 11 35  1  0
 11 36  1  0
 13 37  1  0
 15 38  1  0
 16 39  1  0
 17 40  1  0
M  END
>  <Energy>  (989) 
112.78988111811505

>  <compound_id>  (989) 
46921

>  <target_id>  (989) 
1

>  <reference_id>  (989) 
106

>  <inspiration_ids>  (989) 
[106, 9]

>  <energy_score>  (989) 
-73.37854504533004

>  <distance_score>  (989) 
15.616317456533077

>  <path>  (989) 
/opt/xchem-fragalysis-2/maxwin/BulkDock/SCRATCH/511023/C46921-P106/C46921-P106.minimised.mol

>  <scratch_subdir>  (989) 
/opt/xchem-fragalysis-2/maxwin/BulkDock/SCRATCH/511023/C46921-P106

>  <fragmenstein_runtime>  (989) 
20.799045085906982

>  <fragmenstein_outcome>  (989) 
too moved

>  <fragmenstein_mode>  (989) 
expansion

>  <fragmenstein_error>  (989) 


$$$$
C46921-P9
     RDKit          3D

 40 42  0  0  0  0  0  0  0  0999 V2000
    7.3114  -11.3564   23.4012 C   0  0  0  0  0  0  0  0  0  0  0  0
    6.6360  -11.0958   22.0270 C   0  0  0  0  0  0  0  0  0  0  0  0
    6.4726  -12.0644   20.4591 C   0  0  0  0  0  0  0  0  0  0  0  0
    5.3731  -13.4642   19.9445 N   0  0  0  0  0  0  0  0  0  0  0  0
    4.2239  -14.1828   18.6329 C   0  0  0  0  0  0  0  0  0  0  0  0
    2.7403  -14.9789   18.9238 C   0  0  0  0  0  0  0  0  0  0  0  0
    1.6425  -16.4347   18.1669 S   0  0  0  0  0  0  0  0  0  0  0  0
    2.6551  -17.9091   17.3689 C   0  0  0  0  0  0  0  0  0  0  0  0
    3.2478  -17.9813   16.0042 C   0  0  0  0  0  0  0  0  0  0  0  0
    4.6725  -16.9082   16.0374 S   0  0  0  0  0  0  0  0  0  0  0  0
    4.1426  -15.5554   17.4564 C   0  0  0  0  0  0  0  0  0  0  0  0
    8.1743  -11.8631   20.4460 C   0  0  0  0  0  0  0  0  0  0  0  0
    8.9277  -10.9346   19.7067 C   0  0  0  0  0  0  0  0  0  0  0  0
   10.2114  -11.3573   19.8916 N   0  0  0  0  0  0  0  0  0  0  0  0
   11.3224  -11.3666   19.0678 C   0  0  0  0  0  0  0  0  0  0  0  0
   12.4999  -11.7598   19.5802 C   0  0  0  0  0  0  0  0  0  0  0  0
   12.4750  -12.0193   21.0460 C   0  0  0  0  0  0  0  0  0  0  0  0
   11.4119  -12.1375   21.7820 N   0  0  0  0  0  0  0  0  0  0  0  0
   10.2307  -11.9796   21.1209 C   0  0  0  0  0  0  0  0  0  0  0  0
    9.0244  -12.4658   21.3556 N   0  0  0  0  0  0  0  0  0  0  0  0
    7.4564  -10.3812   23.8877 H   0  0  0  0  0  0  0  0  0  0  0  0
    6.6814  -11.9041   24.1037 H   0  0  0  0  0  0  0  0  0  0  0  0
    8.2999  -11.8086   23.3738 H   0  0  0  0  0  0  0  0  0  0  0  0
    5.6324  -10.7809   22.3312 H   0  0  0  0  0  0  0  0  0  0  0  0
    7.2771  -10.2534   21.7302 H   0  0  0  0  0  0  0  0  0  0  0  0
    6.1954  -11.4337   19.6271 H   0  0  0  0  0  0  0  0  0  0  0  0
    4.5662  -13.1808   20.5069 H   0  0  0  0  0  0  0  0  0  0  0  0
    3.8674  -13.2463   18.2130 H   0  0  0  0  0  0  0  0  0  0  0  0
    2.1584  -14.3156   18.2772 H   0  0  0  0  0  0  0  0  0  0  0  0
    2.4430  -14.9002   19.9571 H   0  0  0  0  0  0  0  0  0  0  0  0
    3.5108  -17.9256   17.9521 H   0  0  0  0  0  0  0  0  0  0  0  0
    2.1223  -18.8440   17.5983 H   0  0  0  0  0  0  0  0  0  0  0  0
    3.6238  -18.9949   15.8238 H   0  0  0  0  0  0  0  0  0  0  0  0
    2.6024  -17.7635   15.1771 H   0  0  0  0  0  0  0  0  0  0  0  0
    3.2505  -15.3207   16.8758 H   0  0  0  0  0  0  0  0  0  0  0  0
    4.8359  -14.9897   16.9683 H   0  0  0  0  0  0  0  0  0  0  0  0
    8.6525  -10.2520   18.9203 H   0  0  0  0  0  0  0  0  0  0  0  0
   11.1624  -11.0980   18.0317 H   0  0  0  0  0  0  0  0  0  0  0  0
   13.4311  -11.8636   19.0437 H   0  0  0  0  0  0  0  0  0  0  0  0
   13.4651  -12.1375   21.5174 H   0  0  0  0  0  0  0  0  0  0  0  0
  1  2  1  0
  2  3  1  0
  3  4  1  0
  4  5  1  0
  5  6  1  0
  6  7  1  0
  7  8  1  0
  8  9  1  0
  9 10  1  0
 10 11  1  0
  3 12  1  0
 12 13  2  0
 13 14  1  0
 14 15  1  0
 15 16  2  0
 16 17  1  0
 17 18  2  0
 18 19  1  0
 19 20  2  0
 11  5  1  0
 20 12  1  0
 19 14  1  0
  1 21  1  0
  1 22  1  0
  1 23  1  0
  2 24  1  0
  2 25  1  0
  3 26  1  0
  4 27  1  0
  5 28  1  0
  6 29  1  0
  6 30  1  0
  8 31  1  0
  8 32  1  0
  9 33  1  0
  9 34  1  0
 11 35  1  0
 11 36  1  0
 13 37  1  0
 15 38  1  0
 16 39  1  0
 17 40  1  0
M  END
>  <Energy>  (990) 
552.74511282952346

>  <compound_id>  (990) 
46921

>  <target_id>  (990) 
1

>  <reference_id>  (990) 
9

>  <inspiration_ids>  (990) 
[106, 9]

>  <energy_score>  (990) 
366.57668666607856

>  <distance_score>  (990) 
15.845461786348972

>  <path>  (990) 
/opt/xchem-fragalysis-2/maxwin/BulkDock/SCRATCH/511023/C46921-P9/C46921-P9.minimised.mol

>  <scratch_subdir>  (990) 
/opt/xchem-fragalysis-2/maxwin/BulkDock/SCRATCH/511023/C46921-P9

>  <fragmenstein_runtime>  (990) 
13.026415824890137

>  <fragmenstein_outcome>  (990) 
too moved

>  <fragmenstein_mode>  (990) 
expansion

>  <fragmenstein_error>  (990) 


$$$$
C46922-P106
     RDKit          3D

 40 43  0  0  0  0  0  0  0  0999 V2000
    6.6831  -19.3733   11.7068 C   0  0  0  0  0  0  0  0  0  0  0  0
    5.9431  -19.6248   13.0165 C   0  0  0  0  0  0  0  0  0  0  0  0
    5.0575  -18.4229   13.4577 C   0  0  0  0  0  0  0  0  0  0  0  0
    3.9786  -18.9470   14.4517 N   0  0  0  0  0  0  0  0  0  0  0  0
    3.0065  -19.8741   14.0508 C   0  0  0  0  0  0  0  0  0  0  0  0
    2.8903  -20.6227   12.9711 N   0  0  0  0  0  0  0  0  0  0  0  0
    1.6927  -21.3397   13.0748 N   0  0  0  0  0  0  0  0  0  0  0  0
    1.1385  -20.9992   14.2211 C   0  0  0  0  0  0  0  0  0  0  0  0
   -0.1711  -21.6806   14.7746 C   0  0  0  0  0  0  0  0  0  0  0  0
   -1.4451  -21.5877   13.8913 C   0  0  0  0  0  0  0  0  0  0  0  0
   -2.2417  -21.4290   15.2069 C   0  0  0  0  0  0  0  0  0  0  0  0
   -0.9563  -20.8696   15.8291 C   0  0  0  0  0  0  0  0  0  0  0  0
    1.9245  -20.0886   14.9088 O   0  0  0  0  0  0  0  0  0  0  0  0
    6.1320  -17.1462   13.7997 C   0  0  0  0  0  0  0  0  0  0  0  0
    7.3313  -17.1070   14.5183 C   0  0  0  0  0  0  0  0  0  0  0  0
    7.9793  -15.9022   14.2292 N   0  0  0  0  0  0  0  0  0  0  0  0
    9.2008  -15.3730   14.6655 C   0  0  0  0  0  0  0  0  0  0  0  0
    9.5673  -14.1299   14.3035 C   0  0  0  0  0  0  0  0  0  0  0  0
    8.5794  -13.4120   13.4511 C   0  0  0  0  0  0  0  0  0  0  0  0
    7.4563  -13.8986   13.0100 N   0  0  0  0  0  0  0  0  0  0  0  0
    7.1539  -15.1940   13.3659 C   0  0  0  0  0  0  0  0  0  0  0  0
    6.0690  -15.9207   13.1058 N   0  0  0  0  0  0  0  0  0  0  0  0
    7.2400  -20.2696   11.4147 H   0  0  0  0  0  0  0  0  0  0  0  0
    5.9805  -19.1361   10.9016 H   0  0  0  0  0  0  0  0  0  0  0  0
    7.4012  -18.5530   11.7913 H   0  0  0  0  0  0  0  0  0  0  0  0
    5.3469  -20.5306   12.8771 H   0  0  0  0  0  0  0  0  0  0  0  0
    6.6664  -19.8647   13.8054 H   0  0  0  0  0  0  0  0  0  0  0  0
    4.4989  -18.0442   12.5897 H   0  0  0  0  0  0  0  0  0  0  0  0
    3.4423  -18.1434   14.7990 H   0  0  0  0  0  0  0  0  0  0  0  0
    0.0401  -22.7070   15.1036 H   0  0  0  0  0  0  0  0  0  0  0  0
   -1.4892  -20.7057   13.2415 H   0  0  0  0  0  0  0  0  0  0  0  0
   -1.6817  -22.4778   13.3027 H   0  0  0  0  0  0  0  0  0  0  0  0
   -2.5531  -22.3743   15.6645 H   0  0  0  0  0  0  0  0  0  0  0  0
   -3.0797  -20.7303   15.1783 H   0  0  0  0  0  0  0  0  0  0  0  0
   -0.8724  -19.7855   15.7244 H   0  0  0  0  0  0  0  0  0  0  0  0
   -0.7771  -21.1426   16.8722 H   0  0  0  0  0  0  0  0  0  0  0  0
    7.8160  -17.8482   15.1370 H   0  0  0  0  0  0  0  0  0  0  0  0
    9.8045  -16.0003   15.3093 H   0  0  0  0  0  0  0  0  0  0  0  0
   10.4827  -13.6411   14.6042 H   0  0  0  0  0  0  0  0  0  0  0  0
    8.8532  -12.3773   13.1853 H   0  0  0  0  0  0  0  0  0  0  0  0
  1  2  1  0
  2  3  1  0
  3  4  1  0
  4  5  1  0
  5  6  2  0
  6  7  1  0
  7  8  2  0
  8  9  1  0
  9 10  1  0
 10 11  1  0
 11 12  1  0
  8 13  1  0
  3 14  1  0
 14 15  2  0
 15 16  1  0
 16 17  1  0
 17 18  2  0
 18 19  1  0
 19 20  2  0
 20 21  1  0
 21 22  2  0
 13  5  1  0
 22 14  1  0
 12  9  1  0
 21 16  1  0
  1 23  1  0
  1 24  1  0
  1 25  1  0
  2 26  1  0
  2 27  1  0
  3 28  1  0
  4 29  1  0
  9 30  1  0
 10 31  1  0
 10 32  1  0
 11 33  1  0
 11 34  1  0
 12 35  1  0
 12 36  1  0
 15 37  1  0
 17 38  1  0
 18 39  1  0
 19 40  1  0
M  END
>  <Energy>  (991) 
37.212930814725127

>  <compound_id>  (991) 
46922

>  <target_id>  (991) 
1

>  <reference_id>  (991) 
106

>  <inspiration_ids>  (991) 
[106, 9]

>  <energy_score>  (991) 
-27.600268041867935

>  <distance_score>  (991) 
15.047985291676554

>  <path>  (991) 
/opt/xchem-fragalysis-2/maxwin/BulkDock/SCRATCH/511023/C46922-P106/C46922-P106.minimised.mol

>  <scratch_subdir>  (991) 
/opt/xchem-fragalysis-2/maxwin/BulkDock/SCRATCH/511023/C46922-P106

>  <fragmenstein_runtime>  (991) 
23.403520107269287

>  <fragmenstein_outcome>  (991) 
too moved

>  <fragmenstein_mode>  (991) 
expansion

>  <fragmenstein_error>  (991) 


$$$$
C46922-P9
     RDKit          3D

 40 43  0  0  0  0  0  0  0  0999 V2000
   -1.9612  -12.5406   17.7514 C   0  0  0  0  0  0  0  0  0  0  0  0
   -1.2903  -13.6786   16.8350 C   0  0  0  0  0  0  0  0  0  0  0  0
   -1.3533  -14.2100   14.9745 C   0  0  0  0  0  0  0  0  0  0  0  0
   -3.2283  -14.8658   15.0020 N   0  0  0  0  0  0  0  0  0  0  0  0
   -3.9891  -15.8228   15.7458 C   0  0  0  0  0  0  0  0  0  0  0  0
   -3.6735  -16.5584   16.7745 N   0  0  0  0  0  0  0  0  0  0  0  0
   -4.6703  -17.3778   17.1242 N   0  0  0  0  0  0  0  0  0  0  0  0
   -5.6617  -17.0901   16.3352 C   0  0  0  0  0  0  0  0  0  0  0  0
   -6.9934  -17.8280   16.5964 C   0  0  0  0  0  0  0  0  0  0  0  0
   -7.6761  -17.5931   17.9681 C   0  0  0  0  0  0  0  0  0  0  0  0
   -7.9910  -19.1043   18.0125 C   0  0  0  0  0  0  0  0  0  0  0  0
   -6.7531  -19.3068   17.1274 C   0  0  0  0  0  0  0  0  0  0  0  0
   -5.3096  -16.1357   15.3750 O   0  0  0  0  0  0  0  0  0  0  0  0
   -0.3867  -13.6248   13.2671 C   0  0  0  0  0  0  0  0  0  0  0  0
    0.1357  -14.2231   12.0878 C   0  0  0  0  0  0  0  0  0  0  0  0
    0.6824  -13.2322   11.2624 N   0  0  0  0  0  0  0  0  0  0  0  0
    1.5802  -13.2985   10.1916 C   0  0  0  0  0  0  0  0  0  0  0  0
    2.0760  -12.1641    9.6607 C   0  0  0  0  0  0  0  0  0  0  0  0
    1.4976  -10.9032   10.2053 C   0  0  0  0  0  0  0  0  0  0  0  0
    0.6094  -10.8317   11.1475 N   0  0  0  0  0  0  0  0  0  0  0  0
    0.2740  -12.0128   11.7575 C   0  0  0  0  0  0  0  0  0  0  0  0
   -0.2507  -12.2209   12.9444 N   0  0  0  0  0  0  0  0  0  0  0  0
   -2.7756  -11.9067   17.4542 H   0  0  0  0  0  0  0  0  0  0  0  0
   -1.2331  -11.8214   18.1117 H   0  0  0  0  0  0  0  0  0  0  0  0
   -2.3675  -12.9723   18.6556 H   0  0  0  0  0  0  0  0  0  0  0  0
   -0.2507  -13.8441   17.1388 H   0  0  0  0  0  0  0  0  0  0  0  0
   -1.8427  -14.4295   17.3967 H   0  0  0  0  0  0  0  0  0  0  0  0
   -1.3432  -13.3194   14.2764 H   0  0  0  0  0  0  0  0  0  0  0  0
   -3.6725  -14.8080   14.0665 H   0  0  0  0  0  0  0  0  0  0  0  0
   -7.7030  -17.6273   15.7990 H   0  0  0  0  0  0  0  0  0  0  0  0
   -8.5492  -16.9349   17.9578 H   0  0  0  0  0  0  0  0  0  0  0  0
   -7.0064  -17.2746   18.7740 H   0  0  0  0  0  0  0  0  0  0  0  0
   -8.9295  -19.3688   17.5284 H   0  0  0  0  0  0  0  0  0  0  0  0
   -7.9540  -19.5706   18.9999 H   0  0  0  0  0  0  0  0  0  0  0  0
   -6.7781  -20.1325   16.4145 H   0  0  0  0  0  0  0  0  0  0  0  0
   -5.8463  -19.4536   17.7301 H   0  0  0  0  0  0  0  0  0  0  0  0
    0.2411  -15.2481   11.7619 H   0  0  0  0  0  0  0  0  0  0  0  0
    1.8900  -14.2871    9.8766 H   0  0  0  0  0  0  0  0  0  0  0  0
    2.7978  -12.1237    8.8586 H   0  0  0  0  0  0  0  0  0  0  0  0
    1.8387   -9.9770    9.7143 H   0  0  0  0  0  0  0  0  0  0  0  0
  1  2  1  0
  2  3  1  0
  3  4  1  0
  4  5  1  0
  5  6  2  0
  6  7  1  0
  7  8  2  0
  8  9  1  0
  9 10  1  0
 10 11  1  0
 11 12  1  0
  8 13  1  0
  3 14  1  0
 14 15  2  0
 15 16  1  0
 16 17  1  0
 17 18  2  0
 18 19  1  0
 19 20  2  0
 20 21  1  0
 21 22  2  0
 13  5  1  0
 22 14  1  0
 12  9  1  0
 21 16  1  0
  1 23  1  0
  1 24  1  0
  1 25  1  0
  2 26  1  0
  2 27  1  0
  3 28  1  0
  4 29  1  0
  9 30  1  0
 10 31  1  0
 10 32  1  0
 11 33  1  0
 11 34  1  0
 12 35  1  0
 12 36  1  0
 15 37  1  0
 17 38  1  0
 18 39  1  0
 19 40  1  0
M  END
>  <Energy>  (992) 
347.91715556983587

>  <compound_id>  (992) 
46922

>  <target_id>  (992) 
1

>  <reference_id>  (992) 
9

>  <inspiration_ids>  (992) 
[106, 9]

>  <energy_score>  (992) 
283.10395671323624

>  <distance_score>  (992) 
15.417414768776275

>  <path>  (992) 
/opt/xchem-fragalysis-2/maxwin/BulkDock/SCRATCH/511023/C46922-P9/C46922-P9.minimised.mol

>  <scratch_subdir>  (992) 
/opt/xchem-fragalysis-2/maxwin/BulkDock/SCRATCH/511023/C46922-P9

>  <fragmenstein_runtime>  (992) 
17.65441131591797

>  <fragmenstein_outcome>  (992) 
too moved

>  <fragmenstein_mode>  (992) 
expansion

>  <fragmenstein_error>  (992) 


$$$$
C46923-P106
     RDKit          3D

 46 49  0  0  0  0  0  0  0  0999 V2000
    1.1651  -13.9994   16.6671 C   0  0  0  0  0  0  0  0  0  0  0  0
    1.6150  -12.8316   15.2013 C   0  0  0  0  0  0  0  0  0  0  0  0
    0.7539  -12.5539   13.4546 C   0  0  0  0  0  0  0  0  0  0  0  0
   -0.5943  -12.6175   13.5254 N   0  0  0  0  0  0  0  0  0  0  0  0
   -0.9908  -13.9605   13.5540 C   0  0  0  0  0  0  0  0  0  0  0  0
   -0.2230  -14.4779   12.4285 N   0  0  0  0  0  0  0  0  0  0  0  0
   -0.8961  -14.8791   11.1995 C   0  0  0  0  0  0  0  0  0  0  0  0
   -2.3459  -15.0141   10.9146 C   0  0  0  0  0  0  0  0  0  0  0  0
   -3.4937  -14.6704   11.9953 C   0  0  0  0  0  0  0  0  0  0  0  0
   -4.9469  -14.8631   11.4950 C   0  0  0  0  0  0  0  0  0  0  0  0
   -5.9813  -15.7695   12.1836 C   0  0  0  0  0  0  0  0  0  0  0  0
   -7.2597  -14.9284   12.2941 C   0  0  0  0  0  0  0  0  0  0  0  0
   -7.1864  -14.0057   11.0929 C   0  0  0  0  0  0  0  0  0  0  0  0
   -5.7212  -13.6094   11.0629 C   0  0  0  0  0  0  0  0  0  0  0  0
   -2.8998  -14.0353   13.4346 N   0  0  0  0  0  0  0  0  0  0  0  0
    0.9492  -11.5783   11.7824 C   0  0  0  0  0  0  0  0  0  0  0  0
    0.2135  -10.5167   11.2215 C   0  0  0  0  0  0  0  0  0  0  0  0
    1.1419   -9.7556   10.4774 N   0  0  0  0  0  0  0  0  0  0  0  0
    1.1126   -8.4006   10.1151 C   0  0  0  0  0  0  0  0  0  0  0  0
    2.2468   -7.7850    9.7363 C   0  0  0  0  0  0  0  0  0  0  0  0
    3.4486   -8.6622    9.6656 C   0  0  0  0  0  0  0  0  0  0  0  0
    3.4847   -9.9363    9.9132 N   0  0  0  0  0  0  0  0  0  0  0  0
    2.3160  -10.4955   10.3772 C   0  0  0  0  0  0  0  0  0  0  0  0
    2.1188  -11.6647   10.9508 N   0  0  0  0  0  0  0  0  0  0  0  0
    0.6923  -14.7723   16.1735 H   0  0  0  0  0  0  0  0  0  0  0  0
    1.9460  -14.3990   17.3320 H   0  0  0  0  0  0  0  0  0  0  0  0
    0.4096  -13.6025   17.3580 H   0  0  0  0  0  0  0  0  0  0  0  0
    2.3491  -13.3533   14.8171 H   0  0  0  0  0  0  0  0  0  0  0  0
    2.1365  -12.2663   15.9110 H   0  0  0  0  0  0  0  0  0  0  0  0
    1.3564  -11.7062   13.6478 H   0  0  0  0  0  0  0  0  0  0  0  0
   -0.9185  -12.2971   12.6195 H   0  0  0  0  0  0  0  0  0  0  0  0
   -0.1813  -15.1451   10.4194 H   0  0  0  0  0  0  0  0  0  0  0  0
   -2.6401  -15.3521    9.9184 H   0  0  0  0  0  0  0  0  0  0  0  0
   -4.7914  -15.3896   10.5395 H   0  0  0  0  0  0  0  0  0  0  0  0
   -5.6367  -16.2589   13.0936 H   0  0  0  0  0  0  0  0  0  0  0  0
   -6.2265  -16.5914   11.5109 H   0  0  0  0  0  0  0  0  0  0  0  0
   -8.1656  -15.5378   12.2962 H   0  0  0  0  0  0  0  0  0  0  0  0
   -7.2905  -14.3163   13.1975 H   0  0  0  0  0  0  0  0  0  0  0  0
   -7.4508  -14.5382   10.1735 H   0  0  0  0  0  0  0  0  0  0  0  0
   -7.8492  -13.1410   11.1893 H   0  0  0  0  0  0  0  0  0  0  0  0
   -5.4310  -13.2758   10.0603 H   0  0  0  0  0  0  0  0  0  0  0  0
   -5.5538  -12.7662   11.7326 H   0  0  0  0  0  0  0  0  0  0  0  0
   -0.7266  -10.0685   11.5128 H   0  0  0  0  0  0  0  0  0  0  0  0
    0.1709   -7.8840   10.2438 H   0  0  0  0  0  0  0  0  0  0  0  0
    2.3262   -6.7382    9.4858 H   0  0  0  0  0  0  0  0  0  0  0  0
    4.3716   -8.1617    9.3296 H   0  0  0  0  0  0  0  0  0  0  0  0
  1  2  1  0
  2  3  1  0
  3  4  1  0
  4  5  1  0
  5  6  2  0
  6  7  1  0
  7  8  2  0
  8  9  1  0
  9 10  1  0
 10 11  1  0
 11 12  1  0
 12 13  1  0
 13 14  1  0
  9 15  2  0
  3 16  1  0
 16 17  2  0
 17 18  1  0
 18 19  1  0
 19 20  2  0
 20 21  1  0
 21 22  2  0
 22 23  1  0
 23 24  2  0
 15  5  1  0
 24 16  1  0
 14 10  1  0
 23 18  1  0
  1 25  1  0
  1 26  1  0
  1 27  1  0
  2 28  1  0
  2 29  1  0
  3 30  1  0
  4 31  1  0
  7 32  1  0
  8 33  1  0
 10 34  1  0
 11 35  1  0
 11 36  1  0
 12 37  1  0
 12 38  1  0
 13 39  1  0
 13 40  1  0
 14 41  1  0
 14 42  1  0
 17 43  1  0
 19 44  1  0
 20 45  1  0
 21 46  1  0
M  END
>  <Energy>  (993) 
415.61702391306676

>  <compound_id>  (993) 
46923

>  <target_id>  (993) 
1

>  <reference_id>  (993) 
106

>  <inspiration_ids>  (993) 
[106, 9]

>  <energy_score>  (993) 
411.818013113462

>  <distance_score>  (993) 
15.064880739730457

>  <path>  (993) 
/opt/xchem-fragalysis-2/maxwin/BulkDock/SCRATCH/511023/C46923-P106/C46923-P106.minimised.mol

>  <scratch_subdir>  (993) 
/opt/xchem-fragalysis-2/maxwin/BulkDock/SCRATCH/511023/C46923-P106

>  <fragmenstein_runtime>  (993) 
20.160017013549805

>  <fragmenstein_outcome>  (993) 
too moved

>  <fragmenstein_mode>  (993) 
expansion

>  <fragmenstein_error>  (993) 


$$$$
C46923-P9
     RDKit          3D

 46 49  0  0  0  0  0  0  0  0999 V2000
    3.5770  -14.1451    8.1364 C   0  0  0  0  0  0  0  0  0  0  0  0
    2.5143  -13.1211    7.7752 C   0  0  0  0  0  0  0  0  0  0  0  0
    1.8927  -12.2906    8.9209 C   0  0  0  0  0  0  0  0  0  0  0  0
    0.8143  -13.0140    9.7440 N   0  0  0  0  0  0  0  0  0  0  0  0
    0.2101  -14.2621    9.4435 C   0  0  0  0  0  0  0  0  0  0  0  0
    0.8974  -15.3871    9.6525 N   0  0  0  0  0  0  0  0  0  0  0  0
    0.2757  -16.5801    9.5077 C   0  0  0  0  0  0  0  0  0  0  0  0
   -1.0293  -16.7270    9.1226 C   0  0  0  0  0  0  0  0  0  0  0  0
   -1.7198  -15.5520    8.9345 C   0  0  0  0  0  0  0  0  0  0  0  0
   -3.2062  -15.6134    8.5967 C   0  0  0  0  0  0  0  0  0  0  0  0
   -3.7055  -14.4424    7.7521 C   0  0  0  0  0  0  0  0  0  0  0  0
   -5.0609  -14.8813    7.2111 C   0  0  0  0  0  0  0  0  0  0  0  0
   -5.0589  -16.4048    7.2646 C   0  0  0  0  0  0  0  0  0  0  0  0
   -3.6658  -16.8030    7.7331 C   0  0  0  0  0  0  0  0  0  0  0  0
   -1.1157  -14.3246    9.1275 N   0  0  0  0  0  0  0  0  0  0  0  0
    2.9689  -11.2261    9.5846 C   0  0  0  0  0  0  0  0  0  0  0  0
    2.7874   -9.8817    9.9059 C   0  0  0  0  0  0  0  0  0  0  0  0
    4.0080   -9.3748   10.3285 N   0  0  0  0  0  0  0  0  0  0  0  0
    4.3647   -8.0992   10.7742 C   0  0  0  0  0  0  0  0  0  0  0  0
    5.6196   -7.8573   11.1784 C   0  0  0  0  0  0  0  0  0  0  0  0
    6.5434   -9.0143   11.0672 C   0  0  0  0  0  0  0  0  0  0  0  0
    6.2410  -10.2001   10.6279 N   0  0  0  0  0  0  0  0  0  0  0  0
    4.9343  -10.4069   10.2446 C   0  0  0  0  0  0  0  0  0  0  0  0
    4.3367  -11.5005    9.7777 N   0  0  0  0  0  0  0  0  0  0  0  0
    3.1942  -14.9254    8.7928 H   0  0  0  0  0  0  0  0  0  0  0  0
    3.9317  -14.6394    7.2252 H   0  0  0  0  0  0  0  0  0  0  0  0
    4.4477  -13.6875    8.6095 H   0  0  0  0  0  0  0  0  0  0  0  0
    1.7182  -13.6310    7.2187 H   0  0  0  0  0  0  0  0  0  0  0  0
    2.9727  -12.4231    7.0612 H   0  0  0  0  0  0  0  0  0  0  0  0
    1.2691  -11.5701    8.3636 H   0  0  0  0  0  0  0  0  0  0  0  0
    0.0251  -12.3867    9.8361 H   0  0  0  0  0  0  0  0  0  0  0  0
    0.9056  -17.4414    9.7149 H   0  0  0  0  0  0  0  0  0  0  0  0
   -1.4616  -17.7099    9.0055 H   0  0  0  0  0  0  0  0  0  0  0  0
   -3.7633  -15.6231    9.5412 H   0  0  0  0  0  0  0  0  0  0  0  0
   -3.7838  -13.5096    8.3182 H   0  0  0  0  0  0  0  0  0  0  0  0
   -3.0222  -14.2521    6.9137 H   0  0  0  0  0  0  0  0  0  0  0  0
   -5.2173  -14.5107    6.1929 H   0  0  0  0  0  0  0  0  0  0  0  0
   -5.8721  -14.4859    7.8329 H   0  0  0  0  0  0  0  0  0  0  0  0
   -5.8107  -16.7432    7.9850 H   0  0  0  0  0  0  0  0  0  0  0  0
   -5.3028  -16.8505    6.2954 H   0  0  0  0  0  0  0  0  0  0  0  0
   -3.0063  -16.9212    6.8630 H   0  0  0  0  0  0  0  0  0  0  0  0
   -3.6695  -17.7558    8.2662 H   0  0  0  0  0  0  0  0  0  0  0  0
    1.9088   -9.2552    9.8735 H   0  0  0  0  0  0  0  0  0  0  0  0
    3.5817   -7.3533   10.7959 H   0  0  0  0  0  0  0  0  0  0  0  0
    5.9701   -6.9165   11.5577 H   0  0  0  0  0  0  0  0  0  0  0  0
    7.5802   -8.8170   11.3867 H   0  0  0  0  0  0  0  0  0  0  0  0
  1  2  1  0
  2  3  1  0
  3  4  1  0
  4  5  1  0
  5  6  2  0
  6  7  1  0
  7  8  2  0
  8  9  1  0
  9 10  1  0
 10 11  1  0
 11 12  1  0
 12 13  1  0
 13 14  1  0
  9 15  2  0
  3 16  1  0
 16 17  2  0
 17 18  1  0
 18 19  1  0
 19 20  2  0
 20 21  1  0
 21 22  2  0
 22 23  1  0
 23 24  2  0
 15  5  1  0
 24 16  1  0
 14 10  1  0
 23 18  1  0
  1 25  1  0
  1 26  1  0
  1 27  1  0
  2 28  1  0
  2 29  1  0
  3 30  1  0
  4 31  1  0
  7 32  1  0
  8 33  1  0
 10 34  1  0
 11 35  1  0
 11 36  1  0
 12 37  1  0
 12 38  1  0
 13 39  1  0
 13 40  1  0
 14 41  1  0
 14 42  1  0
 17 43  1  0
 19 44  1  0
 20 45  1  0
 21 46  1  0
M  END
>  <Energy>  (994) 
-7.5485286509652596

>  <compound_id>  (994) 
46923

>  <target_id>  (994) 
1

>  <reference_id>  (994) 
9

>  <inspiration_ids>  (994) 
[106, 9]

>  <energy_score>  (994) 
-11.347539450577045

>  <distance_score>  (994) 
14.315574503619546

>  <path>  (994) 
/opt/xchem-fragalysis-2/maxwin/BulkDock/SCRATCH/511023/C46923-P9/C46923-P9.minimised.mol

>  <scratch_subdir>  (994) 
/opt/xchem-fragalysis-2/maxwin/BulkDock/SCRATCH/511023/C46923-P9

>  <fragmenstein_runtime>  (994) 
17.522815465927124

>  <fragmenstein_outcome>  (994) 
too moved

>  <fragmenstein_mode>  (994) 
expansion

>  <fragmenstein_error>  (994) 


$$$$
C46925-P106
     RDKit          3D

 36 38  0  0  0  0  0  0  0  0999 V2000
    2.7784  -11.1859   10.3115 O   0  0  0  0  0  0  0  0  0  0  0  0
    2.2129  -11.3468   11.3580 C   0  0  0  0  0  0  0  0  0  0  0  0
    0.6207  -12.2951   11.5375 C   0  0  0  0  0  0  0  0  0  0  0  0
    0.0001  -13.4374   11.6195 C   0  0  0  0  0  0  0  0  0  0  0  0
   -0.6397  -15.1373   11.2703 C   0  0  0  0  0  0  0  0  0  0  0  0
    0.2864  -16.3922   11.3683 C   0  0  0  0  0  0  0  0  0  0  0  0
   -0.2393  -17.8112   11.0063 C   0  0  0  0  0  0  0  0  0  0  0  0
   -1.5188  -17.8909   10.1983 C   0  0  0  0  0  0  0  0  0  0  0  0
   -2.5894  -17.0278   10.8103 C   0  0  0  0  0  0  0  0  0  0  0  0
   -2.1878  -15.5382   10.7910 C   0  0  0  0  0  0  0  0  0  0  0  0
    2.6169  -10.9926   12.7279 N   0  0  0  0  0  0  0  0  0  0  0  0
    4.0124  -10.3807   13.3197 C   0  0  0  0  0  0  0  0  0  0  0  0
    5.1121  -11.1595   13.7593 C   0  0  0  0  0  0  0  0  0  0  0  0
    6.1625  -10.3105   13.9300 N   0  0  0  0  0  0  0  0  0  0  0  0
    7.8855  -10.0667   14.2598 C   0  0  0  0  0  0  0  0  0  0  0  0
    8.3165   -8.8280   14.2405 C   0  0  0  0  0  0  0  0  0  0  0  0
    7.3787   -8.0785   13.4296 C   0  0  0  0  0  0  0  0  0  0  0  0
    6.1606   -7.7429   13.7023 N   0  0  0  0  0  0  0  0  0  0  0  0
    5.4033   -8.8112   13.9589 C   0  0  0  0  0  0  0  0  0  0  0  0
    4.2008   -9.0210   13.5783 N   0  0  0  0  0  0  0  0  0  0  0  0
   -0.3223  -15.0935   10.2833 H   0  0  0  0  0  0  0  0  0  0  0  0
    0.7370  -16.4281   12.3388 H   0  0  0  0  0  0  0  0  0  0  0  0
    1.1376  -16.2443   10.6864 H   0  0  0  0  0  0  0  0  0  0  0  0
    0.5522  -18.3340   10.4523 H   0  0  0  0  0  0  0  0  0  0  0  0
   -0.3628  -18.4123   11.9115 H   0  0  0  0  0  0  0  0  0  0  0  0
   -1.3251  -17.5751    9.1666 H   0  0  0  0  0  0  0  0  0  0  0  0
   -1.8579  -18.9320   10.1496 H   0  0  0  0  0  0  0  0  0  0  0  0
   -2.8157  -17.3674   11.8254 H   0  0  0  0  0  0  0  0  0  0  0  0
   -3.5200  -17.1460   10.2412 H   0  0  0  0  0  0  0  0  0  0  0  0
   -2.3650  -15.2157    9.7677 H   0  0  0  0  0  0  0  0  0  0  0  0
   -2.9936  -15.0364   11.3222 H   0  0  0  0  0  0  0  0  0  0  0  0
    1.8766  -11.1949   13.3452 H   0  0  0  0  0  0  0  0  0  0  0  0
    5.3136  -12.2118   13.7791 H   0  0  0  0  0  0  0  0  0  0  0  0
    8.5418  -10.8582   14.6010 H   0  0  0  0  0  0  0  0  0  0  0  0
    9.2372   -8.5151   14.6720 H   0  0  0  0  0  0  0  0  0  0  0  0
    7.6958   -7.7297   12.4404 H   0  0  0  0  0  0  0  0  0  0  0  0
  1  2  2  0
  2  3  1  0
  3  4  3  0
  4  5  1  0
  5  6  1  0
  6  7  1  0
  7  8  1  0
  8  9  1  0
  9 10  1  0
  2 11  1  0
 11 12  1  0
 12 13  2  0
 13 14  1  0
 14 15  1  0
 15 16  2  0
 16 17  1  0
 17 18  2  0
 18 19  1  0
 19 20  2  0
 10  5  1  0
 20 12  1  0
 19 14  1  0
  5 21  1  0
  6 22  1  0
  6 23  1  0
  7 24  1  0
  7 25  1  0
  8 26  1  0
  8 27  1  0
  9 28  1  0
  9 29  1  0
 10 30  1  0
 10 31  1  0
 11 32  1  0
 13 33  1  0
 15 34  1  0
 16 35  1  0
 17 36  1  0
M  END
>  <Energy>  (995) 
288.95344175842155

>  <compound_id>  (995) 
46925

>  <target_id>  (995) 
1

>  <reference_id>  (995) 
106

>  <inspiration_ids>  (995) 
[106, 9]

>  <energy_score>  (995) 
281.8315185637417

>  <distance_score>  (995) 
13.229864144396057

>  <path>  (995) 
/opt/xchem-fragalysis-2/maxwin/BulkDock/SCRATCH/511023/C46925-P106/C46925-P106.minimised.mol

>  <scratch_subdir>  (995) 
/opt/xchem-fragalysis-2/maxwin/BulkDock/SCRATCH/511023/C46925-P106

>  <fragmenstein_runtime>  (995) 
13.672294855117798

>  <fragmenstein_outcome>  (995) 
too moved

>  <fragmenstein_mode>  (995) 
expansion

>  <fragmenstein_error>  (995) 


$$$$
C46925-P9
     RDKit          3D

 36 38  0  0  0  0  0  0  0  0999 V2000
   -0.2070  -11.8896   12.1326 O   0  0  0  0  0  0  0  0  0  0  0  0
    0.0826  -12.3900   13.2000 C   0  0  0  0  0  0  0  0  0  0  0  0
   -1.4321  -13.6065   13.9036 C   0  0  0  0  0  0  0  0  0  0  0  0
   -3.1330  -14.0266   13.9463 C   0  0  0  0  0  0  0  0  0  0  0  0
   -4.5479  -14.8203   14.1500 C   0  0  0  0  0  0  0  0  0  0  0  0
   -5.5307  -14.2168   15.1440 C   0  0  0  0  0  0  0  0  0  0  0  0
   -6.6558  -15.2084   15.5091 C   0  0  0  0  0  0  0  0  0  0  0  0
   -6.9197  -16.2817   14.4545 C   0  0  0  0  0  0  0  0  0  0  0  0
   -6.6882  -15.7591   13.0437 C   0  0  0  0  0  0  0  0  0  0  0  0
   -5.2663  -15.1992   12.8360 C   0  0  0  0  0  0  0  0  0  0  0  0
    1.6403  -11.9706   14.1672 N   0  0  0  0  0  0  0  0  0  0  0  0
    3.1283  -10.5891   13.9013 C   0  0  0  0  0  0  0  0  0  0  0  0
    4.0396   -9.4998   13.5552 C   0  0  0  0  0  0  0  0  0  0  0  0
    5.2618   -9.2402   14.0591 N   0  0  0  0  0  0  0  0  0  0  0  0
    6.1909   -7.8028   14.0596 C   0  0  0  0  0  0  0  0  0  0  0  0
    7.5051   -7.7639   14.4746 C   0  0  0  0  0  0  0  0  0  0  0  0
    8.2516   -8.9782   14.5569 C   0  0  0  0  0  0  0  0  0  0  0  0
    7.6565  -10.0957   14.3647 N   0  0  0  0  0  0  0  0  0  0  0  0
    5.9468  -10.4125   14.0158 C   0  0  0  0  0  0  0  0  0  0  0  0
    4.7706  -11.1985   14.3528 N   0  0  0  0  0  0  0  0  0  0  0  0
   -4.2445  -15.7707   14.6204 H   0  0  0  0  0  0  0  0  0  0  0  0
   -5.9687  -13.3056   14.7172 H   0  0  0  0  0  0  0  0  0  0  0  0
   -5.0207  -13.9137   16.0655 H   0  0  0  0  0  0  0  0  0  0  0  0
   -6.4135  -15.7029   16.4579 H   0  0  0  0  0  0  0  0  0  0  0  0
   -7.5733  -14.6357   15.6924 H   0  0  0  0  0  0  0  0  0  0  0  0
   -6.2552  -17.1346   14.6357 H   0  0  0  0  0  0  0  0  0  0  0  0
   -7.9482  -16.6402   14.5600 H   0  0  0  0  0  0  0  0  0  0  0  0
   -6.8838  -16.5484   12.3089 H   0  0  0  0  0  0  0  0  0  0  0  0
   -7.4126  -14.9602   12.8398 H   0  0  0  0  0  0  0  0  0  0  0  0
   -5.3203  -14.3277   12.1720 H   0  0  0  0  0  0  0  0  0  0  0  0
   -4.6713  -15.9479   12.2992 H   0  0  0  0  0  0  0  0  0  0  0  0
    1.7051  -12.5749   14.9837 H   0  0  0  0  0  0  0  0  0  0  0  0
    3.9531   -8.5621   13.0253 H   0  0  0  0  0  0  0  0  0  0  0  0
    5.4992   -7.0039   13.8332 H   0  0  0  0  0  0  0  0  0  0  0  0
    8.0959   -6.9435   14.8485 H   0  0  0  0  0  0  0  0  0  0  0  0
    9.2827   -8.9599   14.9319 H   0  0  0  0  0  0  0  0  0  0  0  0
  1  2  2  0
  2  3  1  0
  3  4  3  0
  4  5  1  0
  5  6  1  0
  6  7  1  0
  7  8  1  0
  8  9  1  0
  9 10  1  0
  2 11  1  0
 11 12  1  0
 12 13  2  0
 13 14  1  0
 14 15  1  0
 15 16  2  0
 16 17  1  0
 17 18  2  0
 18 19  1  0
 19 20  2  0
 10  5  1  0
 20 12  1  0
 19 14  1  0
  5 21  1  0
  6 22  1  0
  6 23  1  0
  7 24  1  0
  7 25  1  0
  8 26  1  0
  8 27  1  0
  9 28  1  0
  9 29  1  0
 10 30  1  0
 10 31  1  0
 11 32  1  0
 13 33  1  0
 15 34  1  0
 16 35  1  0
 17 36  1  0
M  END
>  <Energy>  (996) 
827.2852465343027

>  <compound_id>  (996) 
46925

>  <target_id>  (996) 
1

>  <reference_id>  (996) 
9

>  <inspiration_ids>  (996) 
[106, 9]

>  <energy_score>  (996) 
820.1633233396234

>  <distance_score>  (996) 
12.08810410486828

>  <path>  (996) 
/opt/xchem-fragalysis-2/maxwin/BulkDock/SCRATCH/511023/C46925-P9/C46925-P9.minimised.mol

>  <scratch_subdir>  (996) 
/opt/xchem-fragalysis-2/maxwin/BulkDock/SCRATCH/511023/C46925-P9

>  <fragmenstein_runtime>  (996) 
14.616254568099976

>  <fragmenstein_outcome>  (996) 
too moved

>  <fragmenstein_mode>  (996) 
expansion

>  <fragmenstein_error>  (996) 


$$$$
C46942-P106
     RDKit          3D

 41 44  0  0  0  0  0  0  0  0999 V2000
   -2.9025   -9.8216   15.6462 O   0  0  0  0  0  0  0  0  0  0  0  0
   -2.8528   -9.2174   14.6486 C   0  0  0  0  0  0  0  0  0  0  0  0
   -1.3252   -7.9839   14.1122 N   0  0  0  0  0  0  0  0  0  0  0  0
    0.0376   -7.4545   14.9748 C   0  0  0  0  0  0  0  0  0  0  0  0
    1.0769   -7.8895   16.3202 C   0  0  0  0  0  0  0  0  0  0  0  0
    2.3189   -7.3287   16.6415 N   0  0  0  0  0  0  0  0  0  0  0  0
    2.7102   -6.0250   16.0115 C   0  0  0  0  0  0  0  0  0  0  0  0
    3.4761   -5.0603   16.4971 N   0  0  0  0  0  0  0  0  0  0  0  0
    3.1748   -3.9014   15.7958 C   0  0  0  0  0  0  0  0  0  0  0  0
    2.2038   -4.0888   14.8378 C   0  0  0  0  0  0  0  0  0  0  0  0
    1.7476   -5.3657   15.0354 N   0  0  0  0  0  0  0  0  0  0  0  0
    0.3643   -6.0330   14.6213 C   0  0  0  0  0  0  0  0  0  0  0  0
   -4.3353   -9.2083   13.5457 N   0  0  0  0  0  0  0  0  0  0  0  0
   -6.1578  -10.2896   13.6556 C   0  0  0  0  0  0  0  0  0  0  0  0
   -5.4104  -11.1951   12.7803 C   0  0  0  0  0  0  0  0  0  0  0  0
   -6.2662  -12.6190   12.9651 C   0  0  0  0  0  0  0  0  0  0  0  0
   -7.6392  -12.6587   12.2606 C   0  0  0  0  0  0  0  0  0  0  0  0
   -8.5697  -13.7999   12.7395 C   0  0  0  0  0  0  0  0  0  0  0  0
   -7.7548  -15.3053   13.3527 S   0  0  0  0  0  0  0  0  0  0  0  0
   -6.2456  -15.2017   12.3640 C   0  0  0  0  0  0  0  0  0  0  0  0
   -5.4767  -13.8706   12.5017 C   0  0  0  0  0  0  0  0  0  0  0  0
   -5.5012   -9.6580   13.7150 C   0  0  0  0  0  0  0  0  0  0  0  0
   -1.5145   -7.4924   13.2701 H   0  0  0  0  0  0  0  0  0  0  0  0
    0.6095   -8.5100   17.0850 H   0  0  0  0  0  0  0  0  0  0  0  0
    3.6925   -2.9770   16.0128 H   0  0  0  0  0  0  0  0  0  0  0  0
    1.7311   -3.4090   14.1453 H   0  0  0  0  0  0  0  0  0  0  0  0
   -0.2137   -5.4279   13.9299 H   0  0  0  0  0  0  0  0  0  0  0  0
   -6.5113  -10.8071   14.6787 H   0  0  0  0  0  0  0  0  0  0  0  0
   -7.1561   -9.9381   13.0752 H   0  0  0  0  0  0  0  0  0  0  0  0
   -5.4283  -10.9580   11.7074 H   0  0  0  0  0  0  0  0  0  0  0  0
   -6.4533  -12.7465   14.0370 H   0  0  0  0  0  0  0  0  0  0  0  0
   -7.4809  -12.7538   11.1780 H   0  0  0  0  0  0  0  0  0  0  0  0
   -8.1780  -11.7149   12.3897 H   0  0  0  0  0  0  0  0  0  0  0  0
   -9.1878  -13.4259   13.5632 H   0  0  0  0  0  0  0  0  0  0  0  0
   -9.2565  -14.0731   11.9314 H   0  0  0  0  0  0  0  0  0  0  0  0
   -5.5877  -16.0361   12.6294 H   0  0  0  0  0  0  0  0  0  0  0  0
   -6.5274  -15.3514   11.3154 H   0  0  0  0  0  0  0  0  0  0  0  0
   -4.6441  -14.0379   13.1902 H   0  0  0  0  0  0  0  0  0  0  0  0
   -5.0318  -13.6625   11.5253 H   0  0  0  0  0  0  0  0  0  0  0  0
   -5.4870   -9.3463   14.9424 H   0  0  0  0  0  0  0  0  0  0  0  0
   -5.9870   -8.5917   13.2549 H   0  0  0  0  0  0  0  0  0  0  0  0
  1  2  2  0
  2  3  1  0
  3  4  1  0
  4  5  1  0
  5  6  2  0
  6  7  1  0
  7  8  2  0
  8  9  1  0
  9 10  2  0
 10 11  1  0
 11 12  1  0
  2 13  1  0
 13 14  1  0
 14 15  1  0
 15 16  1  0
 16 17  1  0
 17 18  1  0
 18 19  1  0
 19 20  1  0
 20 21  1  0
 15 22  1  0
 12  4  2  0
 22 13  1  0
 11  7  1  0
 21 16  1  0
  3 23  1  0
  5 24  1  0
  9 25  1  0
 10 26  1  0
 12 27  1  0
 14 28  1  0
 14 29  1  0
 15 30  1  0
 16 31  1  0
 17 32  1  0
 17 33  1  0
 18 34  1  0
 18 35  1  0
 20 36  1  0
 20 37  1  0
 21 38  1  0
 21 39  1  0
 22 40  1  0
 22 41  1  0
M  END
>  <Energy>  (997) 
1021.8757981508509

>  <compound_id>  (997) 
46942

>  <target_id>  (997) 
1

>  <reference_id>  (997) 
106

>  <inspiration_ids>  (997) 
[106, 9]

>  <energy_score>  (997) 
950.9470706921695

>  <distance_score>  (997) 
13.573737409983595

>  <path>  (997) 
/opt/xchem-fragalysis-2/maxwin/BulkDock/SCRATCH/511023/C46942-P106/C46942-P106.minimised.mol

>  <scratch_subdir>  (997) 
/opt/xchem-fragalysis-2/maxwin/BulkDock/SCRATCH/511023/C46942-P106

>  <fragmenstein_runtime>  (997) 
13.92938756942749

>  <fragmenstein_outcome>  (997) 
too moved

>  <fragmenstein_mode>  (997) 
expansion

>  <fragmenstein_error>  (997) 


$$$$
C46942-P9
     RDKit          3D

 41 44  0  0  0  0  0  0  0  0999 V2000
    5.7651  -16.3524   15.5693 O   0  0  0  0  0  0  0  0  0  0  0  0
    5.5703  -16.2336   14.4002 C   0  0  0  0  0  0  0  0  0  0  0  0
    5.7084  -14.7009   13.3845 N   0  0  0  0  0  0  0  0  0  0  0  0
    6.1037  -12.9850   13.8655 C   0  0  0  0  0  0  0  0  0  0  0  0
    4.9858  -12.0308   14.5170 C   0  0  0  0  0  0  0  0  0  0  0  0
    4.3225  -10.9608   14.8397 N   0  0  0  0  0  0  0  0  0  0  0  0
    4.7573   -9.9610   14.0843 C   0  0  0  0  0  0  0  0  0  0  0  0
    4.2167   -8.7634   13.8525 N   0  0  0  0  0  0  0  0  0  0  0  0
    5.0938   -7.6598   13.7627 C   0  0  0  0  0  0  0  0  0  0  0  0
    6.5085   -8.2664   13.9129 C   0  0  0  0  0  0  0  0  0  0  0  0
    6.1166  -10.1061   13.7894 N   0  0  0  0  0  0  0  0  0  0  0  0
    6.5207  -11.7936   13.3650 C   0  0  0  0  0  0  0  0  0  0  0  0
    5.0217  -17.2985   13.3139 N   0  0  0  0  0  0  0  0  0  0  0  0
    4.5487  -18.4785   13.4745 C   0  0  0  0  0  0  0  0  0  0  0  0
    3.1551  -19.0161   13.8214 C   0  0  0  0  0  0  0  0  0  0  0  0
    2.1973  -20.2265   13.3992 C   0  0  0  0  0  0  0  0  0  0  0  0
    1.0584  -20.4267   14.4474 C   0  0  0  0  0  0  0  0  0  0  0  0
    0.1976  -21.6893   14.2818 C   0  0  0  0  0  0  0  0  0  0  0  0
   -0.2477  -22.0961   12.5739 S   0  0  0  0  0  0  0  0  0  0  0  0
    0.1204  -20.5026   11.8074 C   0  0  0  0  0  0  0  0  0  0  0  0
    1.5731  -20.0258   12.0025 C   0  0  0  0  0  0  0  0  0  0  0  0
    4.6533  -19.3589   13.5507 C   0  0  0  0  0  0  0  0  0  0  0  0
    5.5670  -14.9197   12.4028 H   0  0  0  0  0  0  0  0  0  0  0  0
    4.8343  -11.7182   13.5545 H   0  0  0  0  0  0  0  0  0  0  0  0
    4.7743   -7.0966   12.8909 H   0  0  0  0  0  0  0  0  0  0  0  0
    7.1529   -8.0324   13.0749 H   0  0  0  0  0  0  0  0  0  0  0  0
    7.1443  -12.1695   12.6296 H   0  0  0  0  0  0  0  0  0  0  0  0
    4.0304  -18.1395   12.4122 H   0  0  0  0  0  0  0  0  0  0  0  0
    4.3936  -17.9655   14.5813 H   0  0  0  0  0  0  0  0  0  0  0  0
    2.8982  -18.8491   14.8823 H   0  0  0  0  0  0  0  0  0  0  0  0
    2.7938  -21.1489   13.3990 H   0  0  0  0  0  0  0  0  0  0  0  0
    1.4903  -20.4521   15.4560 H   0  0  0  0  0  0  0  0  0  0  0  0
    0.4018  -19.5508   14.4289 H   0  0  0  0  0  0  0  0  0  0  0  0
   -0.7191  -21.5891   14.8723 H   0  0  0  0  0  0  0  0  0  0  0  0
    0.7428  -22.5502   14.6834 H   0  0  0  0  0  0  0  0  0  0  0  0
   -0.0941  -20.5729   10.7358 H   0  0  0  0  0  0  0  0  0  0  0  0
   -0.5769  -19.7657   12.2152 H   0  0  0  0  0  0  0  0  0  0  0  0
    1.6136  -18.9663   11.7225 H   0  0  0  0  0  0  0  0  0  0  0  0
    2.2152  -20.5361   11.2721 H   0  0  0  0  0  0  0  0  0  0  0  0
    4.9720  -19.9927   12.5848 H   0  0  0  0  0  0  0  0  0  0  0  0
    5.3083  -19.8382   14.4226 H   0  0  0  0  0  0  0  0  0  0  0  0
  1  2  2  0
  2  3  1  0
  3  4  1  0
  4  5  1  0
  5  6  2  0
  6  7  1  0
  7  8  2  0
  8  9  1  0
  9 10  2  0
 10 11  1  0
 11 12  1  0
  2 13  1  0
 13 14  1  0
 14 15  1  0
 15 16  1  0
 16 17  1  0
 17 18  1  0
 18 19  1  0
 19 20  1  0
 20 21  1  0
 15 22  1  0
 12  4  2  0
 22 13  1  0
 11  7  1  0
 21 16  1  0
  3 23  1  0
  5 24  1  0
  9 25  1  0
 10 26  1  0
 12 27  1  0
 14 28  1  0
 14 29  1  0
 15 30  1  0
 16 31  1  0
 17 32  1  0
 17 33  1  0
 18 34  1  0
 18 35  1  0
 20 36  1  0
 20 37  1  0
 21 38  1  0
 21 39  1  0
 22 40  1  0
 22 41  1  0
M  END
>  <Energy>  (998) 
1247.935432296895

>  <compound_id>  (998) 
46942

>  <target_id>  (998) 
1

>  <reference_id>  (998) 
9

>  <inspiration_ids>  (998) 
[106, 9]

>  <energy_score>  (998) 
1177.0067048382136

>  <distance_score>  (998) 
13.792714828104252

>  <path>  (998) 
/opt/xchem-fragalysis-2/maxwin/BulkDock/SCRATCH/511023/C46942-P9/C46942-P9.minimised.mol

>  <scratch_subdir>  (998) 
/opt/xchem-fragalysis-2/maxwin/BulkDock/SCRATCH/511023/C46942-P9

>  <fragmenstein_runtime>  (998) 
14.676338195800781

>  <fragmenstein_outcome>  (998) 
too moved

>  <fragmenstein_mode>  (998) 
expansion

>  <fragmenstein_error>  (998) 


$$$$
C46943-P106
     RDKit          3D

 43 46  0  0  0  0  0  0  0  0999 V2000
   -3.1859  -12.2634   12.4969 O   0  0  0  0  0  0  0  0  0  0  0  0
   -2.3647  -13.0007   12.0155 C   0  0  0  0  0  0  0  0  0  0  0  0
   -1.0518  -12.6999   11.3659 N   0  0  0  0  0  0  0  0  0  0  0  0
   -0.4404  -11.4716   11.0471 C   0  0  0  0  0  0  0  0  0  0  0  0
   -1.0498  -10.1006   11.3079 C   0  0  0  0  0  0  0  0  0  0  0  0
   -0.5622   -8.9242   11.0056 N   0  0  0  0  0  0  0  0  0  0  0  0
    0.6679   -8.9017   10.4067 C   0  0  0  0  0  0  0  0  0  0  0  0
    1.4174   -7.8687   10.0544 N   0  0  0  0  0  0  0  0  0  0  0  0
    2.5948   -8.3974    9.5902 C   0  0  0  0  0  0  0  0  0  0  0  0
    2.5612   -9.7731    9.6272 C   0  0  0  0  0  0  0  0  0  0  0  0
    1.3412  -10.1002   10.1739 N   0  0  0  0  0  0  0  0  0  0  0  0
    0.7865  -11.3557   10.4830 C   0  0  0  0  0  0  0  0  0  0  0  0
   -2.6407  -14.6415   12.0384 C   0  0  0  0  0  0  0  0  0  0  0  0
   -2.9686  -15.1792   10.6327 C   0  0  0  0  0  0  0  0  0  0  0  0
   -4.4534  -15.5566   10.6319 C   0  0  0  0  0  0  0  0  0  0  0  0
   -4.9827  -14.9681   11.9234 C   0  0  0  0  0  0  0  0  0  0  0  0
   -3.8561  -15.0829   12.8720 N   0  0  0  0  0  0  0  0  0  0  0  0
   -3.7398  -16.4907   13.3720 C   0  0  0  0  0  0  0  0  0  0  0  0
   -2.8587  -16.6036   14.6188 C   0  0  0  0  0  0  0  0  0  0  0  0
   -3.1023  -18.0207   15.1182 C   0  0  0  0  0  0  0  0  0  0  0  0
   -4.5441  -18.3481   14.7368 C   0  0  0  0  0  0  0  0  0  0  0  0
   -5.0318  -17.1719   13.8905 C   0  0  0  0  0  0  0  0  0  0  0  0
   -0.5807  -13.5707   11.1484 H   0  0  0  0  0  0  0  0  0  0  0  0
   -2.0342  -10.1221   11.8031 H   0  0  0  0  0  0  0  0  0  0  0  0
    3.3997   -7.7606    9.2472 H   0  0  0  0  0  0  0  0  0  0  0  0
    3.2850  -10.5239    9.3482 H   0  0  0  0  0  0  0  0  0  0  0  0
    1.4002  -12.2111   10.2342 H   0  0  0  0  0  0  0  0  0  0  0  0
   -1.7234  -15.0852   12.4426 H   0  0  0  0  0  0  0  0  0  0  0  0
   -2.3652  -16.0652   10.4049 H   0  0  0  0  0  0  0  0  0  0  0  0
   -2.7707  -14.4322    9.8567 H   0  0  0  0  0  0  0  0  0  0  0  0
   -4.5673  -16.6465   10.6136 H   0  0  0  0  0  0  0  0  0  0  0  0
   -4.9712  -15.1519    9.7567 H   0  0  0  0  0  0  0  0  0  0  0  0
   -5.9157  -15.4317   12.2537 H   0  0  0  0  0  0  0  0  0  0  0  0
   -5.2153  -13.9057   11.7786 H   0  0  0  0  0  0  0  0  0  0  0  0
   -3.3176  -17.1345   12.5876 H   0  0  0  0  0  0  0  0  0  0  0  0
   -3.1700  -15.8791   15.3823 H   0  0  0  0  0  0  0  0  0  0  0  0
   -1.7990  -16.4312   14.4065 H   0  0  0  0  0  0  0  0  0  0  0  0
   -2.9317  -18.1063   16.1959 H   0  0  0  0  0  0  0  0  0  0  0  0
   -2.4205  -18.7199   14.6199 H   0  0  0  0  0  0  0  0  0  0  0  0
   -5.1591  -18.4727   15.6301 H   0  0  0  0  0  0  0  0  0  0  0  0
   -4.5737  -19.2719   14.1524 H   0  0  0  0  0  0  0  0  0  0  0  0
   -5.6059  -16.4798   14.5193 H   0  0  0  0  0  0  0  0  0  0  0  0
   -5.6801  -17.5126   13.0778 H   0  0  0  0  0  0  0  0  0  0  0  0
  1  2  2  0
  2  3  1  0
  3  4  1  0
  4  5  1  0
  5  6  2  0
  6  7  1  0
  7  8  2  0
  8  9  1  0
  9 10  2  0
 10 11  1  0
 11 12  1  0
  2 13  1  0
 13 14  1  0
 14 15  1  0
 15 16  1  0
 16 17  1  0
 17 18  1  0
 18 19  1  0
 19 20  1  0
 20 21  1  0
 21 22  1  0
 12  4  2  0
 17 13  1  0
 22 18  1  0
 11  7  1  0
  3 23  1  0
  5 24  1  0
  9 25  1  0
 10 26  1  0
 12 27  1  0
 13 28  1  0
 14 29  1  0
 14 30  1  0
 15 31  1  0
 15 32  1  0
 16 33  1  0
 16 34  1  0
 18 35  1  0
 19 36  1  0
 19 37  1  0
 20 38  1  0
 20 39  1  0
 21 40  1  0
 21 41  1  0
 22 42  1  0
 22 43  1  0
M  END
>  <Energy>  (999) 
94.387323530652324

>  <compound_id>  (999) 
46943

>  <target_id>  (999) 
1

>  <reference_id>  (999) 
106

>  <inspiration_ids>  (999) 
[106, 9]

>  <energy_score>  (999) 
-30.926333129685077

>  <distance_score>  (999) 
15.608129700300651

>  <path>  (999) 
/opt/xchem-fragalysis-2/maxwin/BulkDock/SCRATCH/511023/C46943-P106/C46943-P106.minimised.mol

>  <scratch_subdir>  (999) 
/opt/xchem-fragalysis-2/maxwin/BulkDock/SCRATCH/511023/C46943-P106

>  <fragmenstein_runtime>  (999) 
22.263495683670044

>  <fragmenstein_outcome>  (999) 
too moved

>  <fragmenstein_mode>  (999) 
expansion

>  <fragmenstein_error>  (999) 


$$$$
C46943-P9
     RDKit          3D

 43 46  0  0  0  0  0  0  0  0999 V2000
   -3.7405  -12.7957   13.6822 O   0  0  0  0  0  0  0  0  0  0  0  0
   -3.2301  -13.5643   12.9032 C   0  0  0  0  0  0  0  0  0  0  0  0
   -2.0613  -13.4017   12.0275 N   0  0  0  0  0  0  0  0  0  0  0  0
   -1.2507  -12.2781   11.7676 C   0  0  0  0  0  0  0  0  0  0  0  0
   -1.6766  -10.8521   12.1158 C   0  0  0  0  0  0  0  0  0  0  0  0
   -1.1348   -9.7269   11.7288 N   0  0  0  0  0  0  0  0  0  0  0  0
   -0.0115   -9.8228   10.9583 C   0  0  0  0  0  0  0  0  0  0  0  0
    0.6947   -8.8694   10.3727 N   0  0  0  0  0  0  0  0  0  0  0  0
    1.8013   -9.4869    9.8485 C   0  0  0  0  0  0  0  0  0  0  0  0
    1.7351  -10.8472   10.0427 C   0  0  0  0  0  0  0  0  0  0  0  0
    0.5576  -11.0716   10.7234 N   0  0  0  0  0  0  0  0  0  0  0  0
   -0.0772  -12.2763   11.0937 C   0  0  0  0  0  0  0  0  0  0  0  0
   -4.0565  -14.9734   12.7279 C   0  0  0  0  0  0  0  0  0  0  0  0
   -4.4695  -15.2919   11.2845 C   0  0  0  0  0  0  0  0  0  0  0  0
   -4.5631  -16.8057   11.2325 C   0  0  0  0  0  0  0  0  0  0  0  0
   -3.4379  -17.2169   12.1587 C   0  0  0  0  0  0  0  0  0  0  0  0
   -3.4402  -16.2322   13.2682 N   0  0  0  0  0  0  0  0  0  0  0  0
   -4.0883  -16.8589   14.4597 C   0  0  0  0  0  0  0  0  0  0  0  0
   -4.2522  -15.9751   15.6956 C   0  0  0  0  0  0  0  0  0  0  0  0
   -5.0291  -16.8564   16.6679 C   0  0  0  0  0  0  0  0  0  0  0  0
   -5.9286  -17.7409   15.8036 C   0  0  0  0  0  0  0  0  0  0  0  0
   -5.4919  -17.4968   14.3528 C   0  0  0  0  0  0  0  0  0  0  0  0
   -1.8659  -14.2851   11.5686 H   0  0  0  0  0  0  0  0  0  0  0  0
   -2.5798  -10.7803   12.7422 H   0  0  0  0  0  0  0  0  0  0  0  0
    2.5763   -8.9201    9.3501 H   0  0  0  0  0  0  0  0  0  0  0  0
    2.3946  -11.6500    9.7534 H   0  0  0  0  0  0  0  0  0  0  0  0
    0.4030  -13.1864   10.7605 H   0  0  0  0  0  0  0  0  0  0  0  0
   -4.9996  -14.7972   13.2637 H   0  0  0  0  0  0  0  0  0  0  0  0
   -5.4234  -14.8238   11.0202 H   0  0  0  0  0  0  0  0  0  0  0  0
   -3.7218  -14.9422   10.5646 H   0  0  0  0  0  0  0  0  0  0  0  0
   -5.5368  -17.1443   11.5995 H   0  0  0  0  0  0  0  0  0  0  0  0
   -4.4280  -17.1891   10.2169 H   0  0  0  0  0  0  0  0  0  0  0  0
   -3.5089  -18.2634   12.4741 H   0  0  0  0  0  0  0  0  0  0  0  0
   -2.4798  -17.1177   11.6326 H   0  0  0  0  0  0  0  0  0  0  0  0
   -3.4009  -17.6661   14.7579 H   0  0  0  0  0  0  0  0  0  0  0  0
   -4.8338  -15.0727   15.4768 H   0  0  0  0  0  0  0  0  0  0  0  0
   -3.2903  -15.6623   16.1144 H   0  0  0  0  0  0  0  0  0  0  0  0
   -5.6031  -16.2628   17.3861 H   0  0  0  0  0  0  0  0  0  0  0  0
   -4.3358  -17.4849   17.2396 H   0  0  0  0  0  0  0  0  0  0  0  0
   -5.8061  -18.7914   16.0848 H   0  0  0  0  0  0  0  0  0  0  0  0
   -6.9812  -17.4756   15.9419 H   0  0  0  0  0  0  0  0  0  0  0  0
   -5.4872  -18.4275   13.7785 H   0  0  0  0  0  0  0  0  0  0  0  0
   -6.1962  -16.8046   13.8773 H   0  0  0  0  0  0  0  0  0  0  0  0
  1  2  2  0
  2  3  1  0
  3  4  1  0
  4  5  1  0
  5  6  2  0
  6  7  1  0
  7  8  2  0
  8  9  1  0
  9 10  2  0
 10 11  1  0
 11 12  1  0
  2 13  1  0
 13 14  1  0
 14 15  1  0
 15 16  1  0
 16 17  1  0
 17 18  1  0
 18 19  1  0
 19 20  1  0
 20 21  1  0
 21 22  1  0
 12  4  2  0
 17 13  1  0
 22 18  1  0
 11  7  1  0
  3 23  1  0
  5 24  1  0
  9 25  1  0
 10 26  1  0
 12 27  1  0
 13 28  1  0
 14 29  1  0
 14 30  1  0
 15 31  1  0
 15 32  1  0
 16 33  1  0
 16 34  1  0
 18 35  1  0
 19 36  1  0
 19 37  1  0
 20 38  1  0
 20 39  1  0
 21 40  1  0
 21 41  1  0
 22 42  1  0
 22 43  1  0
M  END
>  <Energy>  (1000) 
96.72821461798415

>  <compound_id>  (1000) 
46943

>  <target_id>  (1000) 
1

>  <reference_id>  (1000) 
9

>  <inspiration_ids>  (1000) 
[106, 9]

>  <energy_score>  (1000) 
-28.585442042353748

>  <distance_score>  (1000) 
15.71097471496661

>  <path>  (1000) 
/opt/xchem-fragalysis-2/maxwin/BulkDock/SCRATCH/511023/C46943-P9/C46943-P9.minimised.mol

>  <scratch_subdir>  (1000) 
/opt/xchem-fragalysis-2/maxwin/BulkDock/SCRATCH/511023/C46943-P9

>  <fragmenstein_runtime>  (1000) 
16.558652639389038

>  <fragmenstein_outcome>  (1000) 
too moved

>  <fragmenstein_mode>  (1000) 
expansion

>  <fragmenstein_error>  (1000) 


$$$$
C20891-P106
     RDKit          3D

 39 42  0  0  0  0  0  0  0  0999 V2000
   -1.0704  -11.7714    9.6525 O   0  0  0  0  0  0  0  0  0  0  0  0
   -0.2312  -12.6324    9.6696 C   0  0  0  0  0  0  0  0  0  0  0  0
    1.2374  -12.5384    9.7120 N   0  0  0  0  0  0  0  0  0  0  0  0
    2.0922  -11.4182    9.8384 C   0  0  0  0  0  0  0  0  0  0  0  0
    1.6777   -9.9525    9.7650 C   0  0  0  0  0  0  0  0  0  0  0  0
    2.4363   -8.8877    9.8693 N   0  0  0  0  0  0  0  0  0  0  0  0
    3.7565   -9.0938   10.1607 C   0  0  0  0  0  0  0  0  0  0  0  0
    4.7267   -8.2237   10.3891 N   0  0  0  0  0  0  0  0  0  0  0  0
    5.8472   -8.9682   10.6628 C   0  0  0  0  0  0  0  0  0  0  0  0
    5.5690  -10.3113   10.5937 C   0  0  0  0  0  0  0  0  0  0  0  0
    4.2368  -10.3934   10.2614 N   0  0  0  0  0  0  0  0  0  0  0  0
    3.4254  -11.5209   10.0576 C   0  0  0  0  0  0  0  0  0  0  0  0
   -0.7990  -14.1213    9.6879 C   0  0  0  0  0  0  0  0  0  0  0  0
   -2.1750  -14.4064    9.4603 C   0  0  0  0  0  0  0  0  0  0  0  0
   -2.6728  -15.7362    9.4332 C   0  0  0  0  0  0  0  0  0  0  0  0
   -3.9916  -16.1153    9.1362 N   0  0  0  0  0  0  0  0  0  0  0  0
   -5.0865  -15.1342    9.1362 C   0  0  0  0  0  0  0  0  0  0  0  0
   -6.0948  -15.6952    8.1396 C   0  0  0  0  0  0  0  0  0  0  0  0
   -5.2023  -16.3327    7.0959 C   0  0  0  0  0  0  0  0  0  0  0  0
   -4.1229  -16.9975    7.9447 C   0  0  0  0  0  0  0  0  0  0  0  0
   -1.7452  -16.7415    9.7027 C   0  0  0  0  0  0  0  0  0  0  0  0
   -0.4239  -16.3912    9.9601 C   0  0  0  0  0  0  0  0  0  0  0  0
    0.0804  -15.1209    9.9452 N   0  0  0  0  0  0  0  0  0  0  0  0
    1.6269  -13.4712    9.7997 H   0  0  0  0  0  0  0  0  0  0  0  0
    0.6053   -9.7903    9.5674 H   0  0  0  0  0  0  0  0  0  0  0  0
    6.7981   -8.5049   10.8907 H   0  0  0  0  0  0  0  0  0  0  0  0
    6.1796  -11.1871   10.7527 H   0  0  0  0  0  0  0  0  0  0  0  0
    3.9266  -12.4759   10.1386 H   0  0  0  0  0  0  0  0  0  0  0  0
   -2.8263  -13.5632    9.2577 H   0  0  0  0  0  0  0  0  0  0  0  0
   -5.5201  -15.0268   10.1351 H   0  0  0  0  0  0  0  0  0  0  0  0
   -4.7708  -14.1493    8.7788 H   0  0  0  0  0  0  0  0  0  0  0  0
   -6.7536  -14.9257    7.7284 H   0  0  0  0  0  0  0  0  0  0  0  0
   -6.7104  -16.4649    8.6087 H   0  0  0  0  0  0  0  0  0  0  0  0
   -5.7332  -17.0407    6.4562 H   0  0  0  0  0  0  0  0  0  0  0  0
   -4.7579  -15.5599    6.4570 H   0  0  0  0  0  0  0  0  0  0  0  0
   -3.1990  -17.0950    7.3622 H   0  0  0  0  0  0  0  0  0  0  0  0
   -4.4375  -17.9973    8.2554 H   0  0  0  0  0  0  0  0  0  0  0  0
   -2.0428  -17.7860    9.7268 H   0  0  0  0  0  0  0  0  0  0  0  0
    0.3085  -17.1637   10.1872 H   0  0  0  0  0  0  0  0  0  0  0  0
  1  2  2  0
  2  3  1  0
  3  4  1  0
  4  5  1  0
  5  6  2  0
  6  7  1  0
  7  8  2  0
  8  9  1  0
  9 10  2  0
 10 11  1  0
 11 12  1  0
  2 13  1  0
 13 14  2  0
 14 15  1  0
 15 16  1  0
 16 17  1  0
 17 18  1  0
 18 19  1  0
 19 20  1  0
 15 21  2  0
 21 22  1  0
 22 23  2  0
 12  4  2  0
 23 13  1  0
 11  7  1  0
 20 16  1  0
  3 24  1  0
  5 25  1  0
  9 26  1  0
 10 27  1  0
 12 28  1  0
 14 29  1  0
 17 30  1  0
 17 31  1  0
 18 32  1  0
 18 33  1  0
 19 34  1  0
 19 35  1  0
 20 36  1  0
 20 37  1  0
 21 38  1  0
 22 39  1  0
M  END
>  <Energy>  (1001) 
81.500832301597654

>  <compound_id>  (1001) 
20891

>  <target_id>  (1001) 
1

>  <reference_id>  (1001) 
106

>  <inspiration_ids>  (1001) 
[106, 9]

>  <energy_score>  (1001) 
-17.815809297860767

>  <distance_score>  (1001) 
14.828103364838983

>  <path>  (1001) 
/opt/xchem-fragalysis-2/maxwin/BulkDock/SCRATCH/511023/C20891-P106/C20891-P106.minimised.mol

>  <scratch_subdir>  (1001) 
/opt/xchem-fragalysis-2/maxwin/BulkDock/SCRATCH/511023/C20891-P106

>  <fragmenstein_runtime>  (1001) 
12.09357738494873

>  <fragmenstein_outcome>  (1001) 
too moved

>  <fragmenstein_mode>  (1001) 
expansion

>  <fragmenstein_error>  (1001) 


$$$$
C20891-P9
     RDKit          3D

 39 42  0  0  0  0  0  0  0  0999 V2000
   -0.9534  -15.0776    9.8483 O   0  0  0  0  0  0  0  0  0  0  0  0
   -1.7828  -14.2065    9.8946 C   0  0  0  0  0  0  0  0  0  0  0  0
   -1.6378  -12.7198    9.8005 N   0  0  0  0  0  0  0  0  0  0  0  0
   -0.4769  -11.9001    9.7261 C   0  0  0  0  0  0  0  0  0  0  0  0
    0.9464  -12.4181    9.6003 C   0  0  0  0  0  0  0  0  0  0  0  0
    2.0672  -11.7419    9.5829 N   0  0  0  0  0  0  0  0  0  0  0  0
    1.9850  -10.3905    9.7231 C   0  0  0  0  0  0  0  0  0  0  0  0
    2.9425   -9.4789    9.7032 N   0  0  0  0  0  0  0  0  0  0  0  0
    2.3155   -8.2722    9.8612 C   0  0  0  0  0  0  0  0  0  0  0  0
    0.9529   -8.4436    9.9698 C   0  0  0  0  0  0  0  0  0  0  0  0
    0.7365   -9.8023    9.8782 N   0  0  0  0  0  0  0  0  0  0  0  0
   -0.4642  -10.5501    9.8843 C   0  0  0  0  0  0  0  0  0  0  0  0
   -3.2771  -14.7379   10.2220 C   0  0  0  0  0  0  0  0  0  0  0  0
   -3.4891  -16.0577   10.7373 C   0  0  0  0  0  0  0  0  0  0  0  0
   -4.5370  -16.3862   11.6869 C   0  0  0  0  0  0  0  0  0  0  0  0
   -4.6510  -17.5968   12.4267 N   0  0  0  0  0  0  0  0  0  0  0  0
   -3.6823  -18.7550   12.7220 C   0  0  0  0  0  0  0  0  0  0  0  0
   -4.5175  -20.0583   12.5073 C   0  0  0  0  0  0  0  0  0  0  0  0
   -6.0602  -19.6208   12.3712 C   0  0  0  0  0  0  0  0  0  0  0  0
   -5.9866  -18.0702   12.8557 C   0  0  0  0  0  0  0  0  0  0  0  0
   -5.4845  -15.3749   11.8177 C   0  0  0  0  0  0  0  0  0  0  0  0
   -5.3159  -14.1660   11.1305 C   0  0  0  0  0  0  0  0  0  0  0  0
   -4.2324  -13.8005   10.3766 N   0  0  0  0  0  0  0  0  0  0  0  0
   -2.5638  -12.2925    9.7946 H   0  0  0  0  0  0  0  0  0  0  0  0
    1.0209  -13.5122    9.4880 H   0  0  0  0  0  0  0  0  0  0  0  0
    2.8774   -7.3485    9.8951 H   0  0  0  0  0  0  0  0  0  0  0  0
    0.1417   -7.7451   10.1060 H   0  0  0  0  0  0  0  0  0  0  0  0
   -1.3694   -9.9761   10.0374 H   0  0  0  0  0  0  0  0  0  0  0  0
   -2.7381  -16.7966   10.4607 H   0  0  0  0  0  0  0  0  0  0  0  0
   -3.3392  -18.6739   13.7581 H   0  0  0  0  0  0  0  0  0  0  0  0
   -2.8394  -18.8354   12.0289 H   0  0  0  0  0  0  0  0  0  0  0  0
   -4.1483  -20.7262   13.2654 H   0  0  0  0  0  0  0  0  0  0  0  0
   -4.3283  -20.5855   11.5882 H   0  0  0  0  0  0  0  0  0  0  0  0
   -6.7686  -20.3528   12.7693 H   0  0  0  0  0  0  0  0  0  0  0  0
   -6.4559  -19.6921   11.3509 H   0  0  0  0  0  0  0  0  0  0  0  0
   -5.9738  -17.9259   13.9319 H   0  0  0  0  0  0  0  0  0  0  0  0
   -6.8027  -17.4963   12.4338 H   0  0  0  0  0  0  0  0  0  0  0  0
   -6.3386  -15.4581   12.4792 H   0  0  0  0  0  0  0  0  0  0  0  0
   -6.0654  -13.3821   11.2348 H   0  0  0  0  0  0  0  0  0  0  0  0
  1  2  2  0
  2  3  1  0
  3  4  1  0
  4  5  1  0
  5  6  2  0
  6  7  1  0
  7  8  2  0
  8  9  1  0
  9 10  2  0
 10 11  1  0
 11 12  1  0
  2 13  1  0
 13 14  2  0
 14 15  1  0
 15 16  1  0
 16 17  1  0
 17 18  1  0
 18 19  1  0
 19 20  1  0
 15 21  2  0
 21 22  1  0
 22 23  2  0
 12  4  2  0
 23 13  1  0
 11  7  1  0
 20 16  1  0
  3 24  1  0
  5 25  1  0
  9 26  1  0
 10 27  1  0
 12 28  1  0
 14 29  1  0
 17 30  1  0
 17 31  1  0
 18 32  1  0
 18 33  1  0
 19 34  1  0
 19 35  1  0
 20 36  1  0
 20 37  1  0
 21 38  1  0
 22 39  1  0
M  END
>  <Energy>  (1002) 
124.95155894088296

>  <compound_id>  (1002) 
20891

>  <target_id>  (1002) 
1

>  <reference_id>  (1002) 
9

>  <inspiration_ids>  (1002) 
[106, 9]

>  <energy_score>  (1002) 
25.634917341421215

>  <distance_score>  (1002) 
15.389635301993504

>  <path>  (1002) 
/opt/xchem-fragalysis-2/maxwin/BulkDock/SCRATCH/511023/C20891-P9/C20891-P9.minimised.mol

>  <scratch_subdir>  (1002) 
/opt/xchem-fragalysis-2/maxwin/BulkDock/SCRATCH/511023/C20891-P9

>  <fragmenstein_runtime>  (1002) 
10.554112434387207

>  <fragmenstein_outcome>  (1002) 
too moved

>  <fragmenstein_mode>  (1002) 
expansion

>  <fragmenstein_error>  (1002) 


$$$$
C46948-P106
     RDKit          3D

 41 44  0  0  0  0  0  0  0  0999 V2000
   -2.2149  -12.2131    9.6276 O   0  0  0  0  0  0  0  0  0  0  0  0
   -1.2603  -12.9106    9.8424 C   0  0  0  0  0  0  0  0  0  0  0  0
    0.1629  -12.5502   10.1165 N   0  0  0  0  0  0  0  0  0  0  0  0
    0.7799  -11.2985   10.2944 C   0  0  0  0  0  0  0  0  0  0  0  0
    0.1137   -9.9557   10.5124 C   0  0  0  0  0  0  0  0  0  0  0  0
    0.6854   -8.8184   10.8315 N   0  0  0  0  0  0  0  0  0  0  0  0
    2.0417   -8.8255   11.0071 C   0  0  0  0  0  0  0  0  0  0  0  0
    2.8473   -7.8839   11.4686 N   0  0  0  0  0  0  0  0  0  0  0  0
    4.0935   -8.4484   11.5170 C   0  0  0  0  0  0  0  0  0  0  0  0
    4.0765   -9.7279   11.0224 C   0  0  0  0  0  0  0  0  0  0  0  0
    2.7538   -9.9892   10.7563 N   0  0  0  0  0  0  0  0  0  0  0  0
    2.1284  -11.1867   10.3928 C   0  0  0  0  0  0  0  0  0  0  0  0
   -1.4649  -14.4479    9.8178 C   0  0  0  0  0  0  0  0  0  0  0  0
   -0.4131  -15.3439    9.6304 C   0  0  0  0  0  0  0  0  0  0  0  0
   -0.9076  -16.6032    9.5932 N   0  0  0  0  0  0  0  0  0  0  0  0
   -2.2175  -16.6613    9.7546 N   0  0  0  0  0  0  0  0  0  0  0  0
   -2.6296  -15.3853    9.9097 C   0  0  0  0  0  0  0  0  0  0  0  0
   -4.1685  -15.2697   10.1110 C   0  0  0  0  0  0  0  0  0  0  0  0
   -4.9139  -15.7437    8.8293 C   0  0  0  0  0  0  0  0  0  0  0  0
   -6.4220  -15.9935    9.0002 C   0  0  0  0  0  0  0  0  0  0  0  0
   -6.7415  -16.9226   10.1630 C   0  0  0  0  0  0  0  0  0  0  0  0
   -6.1745  -16.3300   11.4401 C   0  0  0  0  0  0  0  0  0  0  0  0
   -4.6633  -16.1166   11.3312 C   0  0  0  0  0  0  0  0  0  0  0  0
    0.6800  -13.3860   10.3327 H   0  0  0  0  0  0  0  0  0  0  0  0
   -0.9827   -9.9608   10.3913 H   0  0  0  0  0  0  0  0  0  0  0  0
    4.9386   -7.9183   11.9169 H   0  0  0  0  0  0  0  0  0  0  0  0
    4.8510  -10.4702   10.9014 H   0  0  0  0  0  0  0  0  0  0  0  0
    2.7880  -12.0333   10.2559 H   0  0  0  0  0  0  0  0  0  0  0  0
    0.6434  -15.2006    9.4641 H   0  0  0  0  0  0  0  0  0  0  0  0
   -0.4058  -17.4743    9.4502 H   0  0  0  0  0  0  0  0  0  0  0  0
   -4.4176  -14.2172   10.2910 H   0  0  0  0  0  0  0  0  0  0  0  0
   -4.7569  -15.0083    8.0301 H   0  0  0  0  0  0  0  0  0  0  0  0
   -4.4722  -16.6803    8.4640 H   0  0  0  0  0  0  0  0  0  0  0  0
   -6.8235  -16.4175    8.0725 H   0  0  0  0  0  0  0  0  0  0  0  0
   -6.9260  -15.0307    9.1509 H   0  0  0  0  0  0  0  0  0  0  0  0
   -6.3135  -17.9154    9.9818 H   0  0  0  0  0  0  0  0  0  0  0  0
   -7.8261  -17.0450   10.2564 H   0  0  0  0  0  0  0  0  0  0  0  0
   -6.3902  -16.9943   12.2845 H   0  0  0  0  0  0  0  0  0  0  0  0
   -6.6617  -15.3712   11.6554 H   0  0  0  0  0  0  0  0  0  0  0  0
   -4.3263  -15.6354   12.2536 H   0  0  0  0  0  0  0  0  0  0  0  0
   -4.2091  -17.1136   11.3012 H   0  0  0  0  0  0  0  0  0  0  0  0
  1  2  2  0
  2  3  1  0
  3  4  1  0
  4  5  1  0
  5  6  2  0
  6  7  1  0
  7  8  2  0
  8  9  1  0
  9 10  2  0
 10 11  1  0
 11 12  1  0
  2 13  1  0
 13 14  2  0
 14 15  1  0
 15 16  1  0
 16 17  2  0
 17 18  1  0
 18 19  1  0
 19 20  1  0
 20 21  1  0
 21 22  1  0
 22 23  1  0
 12  4  2  0
 17 13  1  0
 23 18  1  0
 11  7  1  0
  3 24  1  0
  5 25  1  0
  9 26  1  0
 10 27  1  0
 12 28  1  0
 14 29  1  0
 15 30  1  0
 18 31  1  0
 19 32  1  0
 19 33  1  0
 20 34  1  0
 20 35  1  0
 21 36  1  0
 21 37  1  0
 22 38  1  0
 22 39  1  0
 23 40  1  0
 23 41  1  0
M  END
>  <Energy>  (1003) 
62.271031485533221

>  <compound_id>  (1003) 
46948

>  <target_id>  (1003) 
1

>  <reference_id>  (1003) 
106

>  <inspiration_ids>  (1003) 
[106, 9]

>  <energy_score>  (1003) 
-22.268063366737124

>  <distance_score>  (1003) 
15.777257077817016

>  <path>  (1003) 
/opt/xchem-fragalysis-2/maxwin/BulkDock/SCRATCH/511023/C46948-P106/C46948-P106.minimised.mol

>  <scratch_subdir>  (1003) 
/opt/xchem-fragalysis-2/maxwin/BulkDock/SCRATCH/511023/C46948-P106

>  <fragmenstein_runtime>  (1003) 
26.272841453552246

>  <fragmenstein_outcome>  (1003) 
too moved

>  <fragmenstein_mode>  (1003) 
expansion

>  <fragmenstein_error>  (1003) 


$$$$
C46948-P9
     RDKit          3D

 41 44  0  0  0  0  0  0  0  0999 V2000
   -5.6663  -23.9344   21.4290 O   0  0  0  0  0  0  0  0  0  0  0  0
   -6.8328  -23.8287   21.1889 C   0  0  0  0  0  0  0  0  0  0  0  0
   -7.8009  -22.7444   22.1541 N   0  0  0  0  0  0  0  0  0  0  0  0
   -7.4350  -21.7907   23.2041 C   0  0  0  0  0  0  0  0  0  0  0  0
   -7.9350  -20.3069   22.9463 C   0  0  0  0  0  0  0  0  0  0  0  0
   -7.2870  -19.1750   22.7938 N   0  0  0  0  0  0  0  0  0  0  0  0
   -5.9266  -19.2001   22.8821 C   0  0  0  0  0  0  0  0  0  0  0  0
   -5.0320  -18.2370   22.6917 N   0  0  0  0  0  0  0  0  0  0  0  0
   -3.8059  -18.8122   22.9026 C   0  0  0  0  0  0  0  0  0  0  0  0
   -3.9539  -20.1482   23.2072 C   0  0  0  0  0  0  0  0  0  0  0  0
   -5.3204  -20.4037   23.2149 N   0  0  0  0  0  0  0  0  0  0  0  0
   -6.0613  -21.6314   23.3929 C   0  0  0  0  0  0  0  0  0  0  0  0
   -7.2859  -24.8906   19.5078 C   0  0  0  0  0  0  0  0  0  0  0  0
   -5.9844  -26.0764   19.3039 C   0  0  0  0  0  0  0  0  0  0  0  0
   -5.6776  -26.6077   18.0695 N   0  0  0  0  0  0  0  0  0  0  0  0
   -6.3903  -26.1033   16.8496 N   0  0  0  0  0  0  0  0  0  0  0  0
   -7.4132  -24.6832   17.3913 C   0  0  0  0  0  0  0  0  0  0  0  0
   -8.7811  -25.8038   16.3107 C   0  0  0  0  0  0  0  0  0  0  0  0
   -8.4173  -27.2920   15.7269 C   0  0  0  0  0  0  0  0  0  0  0  0
   -8.7681  -27.6775   14.2860 C   0  0  0  0  0  0  0  0  0  0  0  0
  -10.0424  -27.0568   13.7658 C   0  0  0  0  0  0  0  0  0  0  0  0
   -9.8841  -25.5567   13.7613 C   0  0  0  0  0  0  0  0  0  0  0  0
   -9.7360  -25.0202   15.1796 C   0  0  0  0  0  0  0  0  0  0  0  0
   -8.7680  -22.8466   21.8678 H   0  0  0  0  0  0  0  0  0  0  0  0
   -9.0343  -20.2599   22.8456 H   0  0  0  0  0  0  0  0  0  0  0  0
   -2.8892  -18.2435   22.8161 H   0  0  0  0  0  0  0  0  0  0  0  0
   -3.2385  -20.9323   23.4082 H   0  0  0  0  0  0  0  0  0  0  0  0
   -5.4110  -22.5009   23.4148 H   0  0  0  0  0  0  0  0  0  0  0  0
   -5.2451  -26.3173   20.0634 H   0  0  0  0  0  0  0  0  0  0  0  0
   -4.9530  -27.2844   17.8747 H   0  0  0  0  0  0  0  0  0  0  0  0
   -9.5570  -26.2155   16.9753 H   0  0  0  0  0  0  0  0  0  0  0  0
   -9.0466  -27.9673   16.3195 H   0  0  0  0  0  0  0  0  0  0  0  0
   -7.4129  -27.6682   15.9099 H   0  0  0  0  0  0  0  0  0  0  0  0
   -7.9364  -27.4277   13.6188 H   0  0  0  0  0  0  0  0  0  0  0  0
   -8.8598  -28.7702   14.2320 H   0  0  0  0  0  0  0  0  0  0  0  0
  -10.8985  -27.3592   14.3802 H   0  0  0  0  0  0  0  0  0  0  0  0
  -10.2348  -27.4107   12.7466 H   0  0  0  0  0  0  0  0  0  0  0  0
  -10.7712  -25.1010   13.3035 H   0  0  0  0  0  0  0  0  0  0  0  0
   -9.0442  -25.2662   13.1248 H   0  0  0  0  0  0  0  0  0  0  0  0
  -10.7590  -25.1357   15.5638 H   0  0  0  0  0  0  0  0  0  0  0  0
   -9.5258  -23.9436   15.1572 H   0  0  0  0  0  0  0  0  0  0  0  0
  1  2  2  0
  2  3  1  0
  3  4  1  0
  4  5  1  0
  5  6  2  0
  6  7  1  0
  7  8  2  0
  8  9  1  0
  9 10  2  0
 10 11  1  0
 11 12  1  0
  2 13  1  0
 13 14  2  0
 14 15  1  0
 15 16  1  0
 16 17  2  0
 17 18  1  0
 18 19  1  0
 19 20  1  0
 20 21  1  0
 21 22  1  0
 22 23  1  0
 12  4  2  0
 17 13  1  0
 23 18  1  0
 11  7  1  0
  3 24  1  0
  5 25  1  0
  9 26  1  0
 10 27  1  0
 12 28  1  0
 14 29  1  0
 15 30  1  0
 18 31  1  0
 19 32  1  0
 19 33  1  0
 20 34  1  0
 20 35  1  0
 21 36  1  0
 21 37  1  0
 22 38  1  0
 22 39  1  0
 23 40  1  0
 23 41  1  0
M  END
>  <Energy>  (1004) 
675.53280707085071

>  <compound_id>  (1004) 
46948

>  <target_id>  (1004) 
1

>  <reference_id>  (1004) 
9

>  <inspiration_ids>  (1004) 
[106, 9]

>  <energy_score>  (1004) 
590.993712218581

>  <distance_score>  (1004) 
20.000175455852904

>  <path>  (1004) 
/opt/xchem-fragalysis-2/maxwin/BulkDock/SCRATCH/511023/C46948-P9/C46948-P9.minimised.mol

>  <scratch_subdir>  (1004) 
/opt/xchem-fragalysis-2/maxwin/BulkDock/SCRATCH/511023/C46948-P9

>  <fragmenstein_runtime>  (1004) 
12.475467205047607

>  <fragmenstein_outcome>  (1004) 
too moved

>  <fragmenstein_mode>  (1004) 
expansion

>  <fragmenstein_error>  (1004) 


$$$$
C46949-P106
     RDKit          3D

 34 37  0  0  0  0  0  0  0  0999 V2000
   -0.6974   -6.9770   16.3829 O   0  0  0  0  0  0  0  0  0  0  0  0
   -0.6315   -7.6173   17.3919 C   0  0  0  0  0  0  0  0  0  0  0  0
    0.4366   -7.7344   18.3687 N   0  0  0  0  0  0  0  0  0  0  0  0
    1.7238   -7.2154   18.3765 C   0  0  0  0  0  0  0  0  0  0  0  0
    2.3766   -6.4919   17.2063 C   0  0  0  0  0  0  0  0  0  0  0  0
    3.6214   -6.1046   17.1090 N   0  0  0  0  0  0  0  0  0  0  0  0
    4.4261   -6.3688   18.1792 C   0  0  0  0  0  0  0  0  0  0  0  0
    5.7302   -6.2109   18.3317 N   0  0  0  0  0  0  0  0  0  0  0  0
    5.9987   -6.5157   19.6383 C   0  0  0  0  0  0  0  0  0  0  0  0
    4.8661   -6.9321   20.2855 C   0  0  0  0  0  0  0  0  0  0  0  0
    3.8780   -6.9006   19.3380 N   0  0  0  0  0  0  0  0  0  0  0  0
    2.5586   -7.3337   19.4240 C   0  0  0  0  0  0  0  0  0  0  0  0
   -1.8404   -8.4951   17.6788 C   0  0  0  0  0  0  0  0  0  0  0  0
   -2.3101   -9.1489   18.8137 C   0  0  0  0  0  0  0  0  0  0  0  0
   -3.4630   -9.7932   18.4236 N   0  0  0  0  0  0  0  0  0  0  0  0
   -4.4387  -10.5361   19.2487 C   0  0  0  0  0  0  0  0  0  0  0  0
   -5.4340   -9.5925   19.9723 C   0  0  0  0  0  0  0  0  0  0  0  0
   -5.3796  -10.5834   21.1554 C   0  0  0  0  0  0  0  0  0  0  0  0
   -3.9693  -10.9732   20.6600 C   0  0  0  0  0  0  0  0  0  0  0  0
   -3.7058   -9.5578   17.1295 N   0  0  0  0  0  0  0  0  0  0  0  0
   -2.7184   -8.8225   16.6510 N   0  0  0  0  0  0  0  0  0  0  0  0
    0.1785   -8.4366   19.0616 H   0  0  0  0  0  0  0  0  0  0  0  0
    1.7140   -6.2942   16.3484 H   0  0  0  0  0  0  0  0  0  0  0  0
    6.9874   -6.4313   20.0647 H   0  0  0  0  0  0  0  0  0  0  0  0
    4.6899   -7.2570   21.2997 H   0  0  0  0  0  0  0  0  0  0  0  0
    2.2608   -7.7967   20.3547 H   0  0  0  0  0  0  0  0  0  0  0  0
   -1.9431   -9.1811   19.8262 H   0  0  0  0  0  0  0  0  0  0  0  0
   -4.9534  -11.3211   18.6839 H   0  0  0  0  0  0  0  0  0  0  0  0
   -5.0451   -8.5971   20.2190 H   0  0  0  0  0  0  0  0  0  0  0  0
   -6.4130   -9.4820   19.4983 H   0  0  0  0  0  0  0  0  0  0  0  0
   -5.4292  -10.1386   22.1522 H   0  0  0  0  0  0  0  0  0  0  0  0
   -6.1128  -11.3953   21.0874 H   0  0  0  0  0  0  0  0  0  0  0  0
   -3.7111  -12.0277   20.7754 H   0  0  0  0  0  0  0  0  0  0  0  0
   -3.1847  -10.3758   21.1350 H   0  0  0  0  0  0  0  0  0  0  0  0
  1  2  2  0
  2  3  1  0
  3  4  1  0
  4  5  1  0
  5  6  2  0
  6  7  1  0
  7  8  2  0
  8  9  1  0
  9 10  2  0
 10 11  1  0
 11 12  1  0
  2 13  1  0
 13 14  2  0
 14 15  1  0
 15 16  1  0
 16 17  1  0
 17 18  1  0
 18 19  1  0
 15 20  1  0
 20 21  2  0
 12  4  2  0
 21 13  1  0
 11  7  1  0
 19 16  1  0
  3 22  1  0
  5 23  1  0
  9 24  1  0
 10 25  1  0
 12 26  1  0
 14 27  1  0
 16 28  1  0
 17 29  1  0
 17 30  1  0
 18 31  1  0
 18 32  1  0
 19 33  1  0
 19 34  1  0
M  END
>  <Energy>  (1005) 
70.367646366133101

>  <compound_id>  (1005) 
46949

>  <target_id>  (1005) 
1

>  <reference_id>  (1005) 
106

>  <inspiration_ids>  (1005) 
[106, 9]

>  <energy_score>  (1005) 
-15.213216695422943

>  <distance_score>  (1005) 
16.82865040519877

>  <path>  (1005) 
/opt/xchem-fragalysis-2/maxwin/BulkDock/SCRATCH/511023/C46949-P106/C46949-P106.minimised.mol

>  <scratch_subdir>  (1005) 
/opt/xchem-fragalysis-2/maxwin/BulkDock/SCRATCH/511023/C46949-P106

>  <fragmenstein_runtime>  (1005) 
14.046279907226562

>  <fragmenstein_outcome>  (1005) 
too moved

>  <fragmenstein_mode>  (1005) 
expansion

>  <fragmenstein_error>  (1005) 


$$$$
C46949-P9
     RDKit          3D

 34 37  0  0  0  0  0  0  0  0999 V2000
    7.5811  -16.9395   15.2865 O   0  0  0  0  0  0  0  0  0  0  0  0
    7.0336  -16.6357   14.2668 C   0  0  0  0  0  0  0  0  0  0  0  0
    7.2944  -15.5302   13.3380 N   0  0  0  0  0  0  0  0  0  0  0  0
    8.1955  -14.4567   13.4166 C   0  0  0  0  0  0  0  0  0  0  0  0
    8.9501  -14.0790   14.6916 C   0  0  0  0  0  0  0  0  0  0  0  0
    9.7959  -13.1014   14.8722 N   0  0  0  0  0  0  0  0  0  0  0  0
   10.1197  -12.3694   13.7710 C   0  0  0  0  0  0  0  0  0  0  0  0
   11.0615  -11.4567   13.6129 N   0  0  0  0  0  0  0  0  0  0  0  0
   11.0987  -11.1793   12.2737 C   0  0  0  0  0  0  0  0  0  0  0  0
   10.0858  -11.8350   11.6147 C   0  0  0  0  0  0  0  0  0  0  0  0
    9.4829  -12.6272   12.5618 N   0  0  0  0  0  0  0  0  0  0  0  0
    8.5032  -13.6195   12.4047 C   0  0  0  0  0  0  0  0  0  0  0  0
    5.8270  -17.5074   13.9311 C   0  0  0  0  0  0  0  0  0  0  0  0
    5.1686  -17.8505   12.7548 C   0  0  0  0  0  0  0  0  0  0  0  0
    4.1786  -18.7530   13.1293 N   0  0  0  0  0  0  0  0  0  0  0  0
    3.4399  -19.6532   12.2094 C   0  0  0  0  0  0  0  0  0  0  0  0
    2.0025  -19.9869   12.6571 C   0  0  0  0  0  0  0  0  0  0  0  0
    1.5843  -19.8548   11.1787 C   0  0  0  0  0  0  0  0  0  0  0  0
    2.8233  -18.9589   10.9736 C   0  0  0  0  0  0  0  0  0  0  0  0
    4.2395  -18.9796   14.4502 N   0  0  0  0  0  0  0  0  0  0  0  0
    5.1792  -18.1979   14.9579 N   0  0  0  0  0  0  0  0  0  0  0  0
    6.6876  -15.6250   12.5305 H   0  0  0  0  0  0  0  0  0  0  0  0
    8.7230  -14.7091   15.5646 H   0  0  0  0  0  0  0  0  0  0  0  0
   11.8359  -10.5037   11.8570 H   0  0  0  0  0  0  0  0  0  0  0  0
    9.7925  -11.8546   10.5751 H   0  0  0  0  0  0  0  0  0  0  0  0
    8.0836  -13.7179   11.4118 H   0  0  0  0  0  0  0  0  0  0  0  0
    5.3231  -17.6013   11.7175 H   0  0  0  0  0  0  0  0  0  0  0  0
    4.0311  -20.5428   11.9555 H   0  0  0  0  0  0  0  0  0  0  0  0
    1.5297  -19.2510   13.3116 H   0  0  0  0  0  0  0  0  0  0  0  0
    1.8646  -20.9810   13.0916 H   0  0  0  0  0  0  0  0  0  0  0  0
    1.6270  -20.7987   10.6234 H   0  0  0  0  0  0  0  0  0  0  0  0
    0.6177  -19.3773   11.0001 H   0  0  0  0  0  0  0  0  0  0  0  0
    2.6102  -17.8903   11.0728 H   0  0  0  0  0  0  0  0  0  0  0  0
    3.3580  -19.1174   10.0325 H   0  0  0  0  0  0  0  0  0  0  0  0
  1  2  2  0
  2  3  1  0
  3  4  1  0
  4  5  1  0
  5  6  2  0
  6  7  1  0
  7  8  2  0
  8  9  1  0
  9 10  2  0
 10 11  1  0
 11 12  1  0
  2 13  1  0
 13 14  2  0
 14 15  1  0
 15 16  1  0
 16 17  1  0
 17 18  1  0
 18 19  1  0
 15 20  1  0
 20 21  2  0
 12  4  2  0
 21 13  1  0
 11  7  1  0
 19 16  1  0
  3 22  1  0
  5 23  1  0
  9 24  1  0
 10 25  1  0
 12 26  1  0
 14 27  1  0
 16 28  1  0
 17 29  1  0
 17 30  1  0
 18 31  1  0
 18 32  1  0
 19 33  1  0
 19 34  1  0
M  END
>  <Energy>  (1006) 
73.473034301886813

>  <compound_id>  (1006) 
46949

>  <target_id>  (1006) 
1

>  <reference_id>  (1006) 
9

>  <inspiration_ids>  (1006) 
[106, 9]

>  <energy_score>  (1006) 
-12.107828759671975

>  <distance_score>  (1006) 
16.558007869117645

>  <path>  (1006) 
/opt/xchem-fragalysis-2/maxwin/BulkDock/SCRATCH/511023/C46949-P9/C46949-P9.minimised.mol

>  <scratch_subdir>  (1006) 
/opt/xchem-fragalysis-2/maxwin/BulkDock/SCRATCH/511023/C46949-P9

>  <fragmenstein_runtime>  (1006) 
21.50702953338623

>  <fragmenstein_outcome>  (1006) 
too moved

>  <fragmenstein_mode>  (1006) 
expansion

>  <fragmenstein_error>  (1006) 


$$$$
C20893-P106
     RDKit          3D

 39 42  0  0  0  0  0  0  0  0999 V2000
    0.3195  -12.6640   12.7043 O   0  0  0  0  0  0  0  0  0  0  0  0
    0.4692  -13.0412   13.8592 C   0  0  0  0  0  0  0  0  0  0  0  0
    1.9380  -12.7113   15.1127 N   0  0  0  0  0  0  0  0  0  0  0  0
    3.6160  -11.5510   14.9919 C   0  0  0  0  0  0  0  0  0  0  0  0
    3.8979  -10.3393   13.7744 C   0  0  0  0  0  0  0  0  0  0  0  0
    4.7606   -9.3578   13.5012 N   0  0  0  0  0  0  0  0  0  0  0  0
    5.8268   -9.9015   12.9420 C   0  0  0  0  0  0  0  0  0  0  0  0
    6.8144   -9.4577   12.2098 N   0  0  0  0  0  0  0  0  0  0  0  0
    7.5340  -10.5834   11.9234 C   0  0  0  0  0  0  0  0  0  0  0  0
    6.9641  -11.6998   12.5039 C   0  0  0  0  0  0  0  0  0  0  0  0
    5.9085  -11.2206   13.2593 N   0  0  0  0  0  0  0  0  0  0  0  0
    4.8956  -11.8970   14.2275 C   0  0  0  0  0  0  0  0  0  0  0  0
   -1.2002  -14.0747   14.6053 C   0  0  0  0  0  0  0  0  0  0  0  0
   -1.6593  -14.1121   16.2872 C   0  0  0  0  0  0  0  0  0  0  0  0
   -2.8295  -14.5458   17.2428 C   0  0  0  0  0  0  0  0  0  0  0  0
   -3.9421  -15.2338   16.8274 C   0  0  0  0  0  0  0  0  0  0  0  0
   -4.9472  -15.6630   17.6396 N   0  0  0  0  0  0  0  0  0  0  0  0
   -5.9975  -16.4993   17.0673 C   0  0  0  0  0  0  0  0  0  0  0  0
   -6.8551  -16.8491   18.2796 C   0  0  0  0  0  0  0  0  0  0  0  0
   -5.8252  -16.9655   19.3925 C   0  0  0  0  0  0  0  0  0  0  0  0
   -4.8242  -15.8534   19.0755 C   0  0  0  0  0  0  0  0  0  0  0  0
   -3.9812  -15.4267   15.5318 N   0  0  0  0  0  0  0  0  0  0  0  0
   -2.8547  -14.8597   14.7575 C   0  0  0  0  0  0  0  0  0  0  0  0
    1.8104  -13.2245   15.9744 H   0  0  0  0  0  0  0  0  0  0  0  0
    3.4298  -10.5921   12.8123 H   0  0  0  0  0  0  0  0  0  0  0  0
    8.4175  -10.5393   11.2997 H   0  0  0  0  0  0  0  0  0  0  0  0
    7.2465  -12.7381   12.4977 H   0  0  0  0  0  0  0  0  0  0  0  0
    5.2613  -12.8757   14.1035 H   0  0  0  0  0  0  0  0  0  0  0  0
   -1.0525  -13.5425   17.0235 H   0  0  0  0  0  0  0  0  0  0  0  0
   -2.7168  -14.2697   18.2882 H   0  0  0  0  0  0  0  0  0  0  0  0
   -5.5743  -17.4122   16.6301 H   0  0  0  0  0  0  0  0  0  0  0  0
   -6.5860  -15.9720   16.3089 H   0  0  0  0  0  0  0  0  0  0  0  0
   -7.5526  -16.0317   18.4989 H   0  0  0  0  0  0  0  0  0  0  0  0
   -7.4322  -17.7666   18.1354 H   0  0  0  0  0  0  0  0  0  0  0  0
   -6.2619  -16.8632   20.3899 H   0  0  0  0  0  0  0  0  0  0  0  0
   -5.3276  -17.9415   19.3369 H   0  0  0  0  0  0  0  0  0  0  0  0
   -3.8182  -16.1556   19.3874 H   0  0  0  0  0  0  0  0  0  0  0  0
   -5.0946  -14.9277   19.5952 H   0  0  0  0  0  0  0  0  0  0  0  0
   -3.5227  -14.5760   13.8697 H   0  0  0  0  0  0  0  0  0  0  0  0
  1  2  2  0
  2  3  1  0
  3  4  1  0
  4  5  1  0
  5  6  2  0
  6  7  1  0
  7  8  2  0
  8  9  1  0
  9 10  2  0
 10 11  1  0
 11 12  1  0
  2 13  1  0
 13 14  2  0
 14 15  1  0
 15 16  2  0
 16 17  1  0
 17 18  1  0
 18 19  1  0
 19 20  1  0
 20 21  1  0
 16 22  1  0
 22 23  2  0
 12  4  2  0
 23 13  1  0
 11  7  1  0
 21 17  1  0
  3 24  1  0
  5 25  1  0
  9 26  1  0
 10 27  1  0
 12 28  1  0
 14 29  1  0
 15 30  1  0
 18 31  1  0
 18 32  1  0
 19 33  1  0
 19 34  1  0
 20 35  1  0
 20 36  1  0
 21 37  1  0
 21 38  1  0
 23 39  1  0
M  END
>  <Energy>  (1007) 
793.00001835664682

>  <compound_id>  (1007) 
20893

>  <target_id>  (1007) 
1

>  <reference_id>  (1007) 
106

>  <inspiration_ids>  (1007) 
[106, 9]

>  <energy_score>  (1007) 
715.2925010166236

>  <distance_score>  (1007) 
13.900806301970949

>  <path>  (1007) 
/opt/xchem-fragalysis-2/maxwin/BulkDock/SCRATCH/511023/C20893-P106/C20893-P106.minimised.mol

>  <scratch_subdir>  (1007) 
/opt/xchem-fragalysis-2/maxwin/BulkDock/SCRATCH/511023/C20893-P106

>  <fragmenstein_runtime>  (1007) 
14.290874242782593

>  <fragmenstein_outcome>  (1007) 
too moved

>  <fragmenstein_mode>  (1007) 
expansion

>  <fragmenstein_error>  (1007) 


$$$$
C20893-P9
     RDKit          3D

 39 42  0  0  0  0  0  0  0  0999 V2000
    3.0869  -13.6886    8.2553 O   0  0  0  0  0  0  0  0  0  0  0  0
    2.2053  -13.0872    8.8108 C   0  0  0  0  0  0  0  0  0  0  0  0
    2.1982  -11.7482    9.4244 N   0  0  0  0  0  0  0  0  0  0  0  0
    3.2364  -10.8209    9.6241 C   0  0  0  0  0  0  0  0  0  0  0  0
    2.9535   -9.3693    9.9961 C   0  0  0  0  0  0  0  0  0  0  0  0
    3.8007   -8.4075   10.2370 N   0  0  0  0  0  0  0  0  0  0  0  0
    5.1187   -8.7440   10.1851 C   0  0  0  0  0  0  0  0  0  0  0  0
    6.1822   -7.9832   10.3432 N   0  0  0  0  0  0  0  0  0  0  0  0
    7.2670   -8.7926   10.1692 C   0  0  0  0  0  0  0  0  0  0  0  0
    6.8705  -10.0837    9.9158 C   0  0  0  0  0  0  0  0  0  0  0  0
    5.4946  -10.0485    9.8815 N   0  0  0  0  0  0  0  0  0  0  0  0
    4.5657  -11.0596    9.5859 C   0  0  0  0  0  0  0  0  0  0  0  0
    0.9218  -13.9684    8.9637 C   0  0  0  0  0  0  0  0  0  0  0  0
    0.6979  -15.0319    8.0727 C   0  0  0  0  0  0  0  0  0  0  0  0
   -0.3638  -15.9554    8.2347 C   0  0  0  0  0  0  0  0  0  0  0  0
   -1.2627  -15.8208    9.2805 C   0  0  0  0  0  0  0  0  0  0  0  0
   -2.3415  -16.6575    9.4396 N   0  0  0  0  0  0  0  0  0  0  0  0
   -2.5460  -17.8751    8.6711 C   0  0  0  0  0  0  0  0  0  0  0  0
   -3.8878  -18.3731    9.1945 C   0  0  0  0  0  0  0  0  0  0  0  0
   -4.6713  -17.0816    9.3674 C   0  0  0  0  0  0  0  0  0  0  0  0
   -3.6215  -16.0613    9.8202 C   0  0  0  0  0  0  0  0  0  0  0  0
   -1.0533  -14.8341   10.1799 N   0  0  0  0  0  0  0  0  0  0  0  0
    0.0297  -13.9779   10.0283 C   0  0  0  0  0  0  0  0  0  0  0  0
    1.2565  -11.5272    9.7282 H   0  0  0  0  0  0  0  0  0  0  0  0
    1.8817   -9.1159   10.0284 H   0  0  0  0  0  0  0  0  0  0  0  0
    8.2725   -8.3963   10.2224 H   0  0  0  0  0  0  0  0  0  0  0  0
    7.4229  -10.9910    9.7223 H   0  0  0  0  0  0  0  0  0  0  0  0
    4.9735  -12.0364    9.3558 H   0  0  0  0  0  0  0  0  0  0  0  0
    1.3818  -15.1766    7.2361 H   0  0  0  0  0  0  0  0  0  0  0  0
   -0.4614  -16.7500    7.5037 H   0  0  0  0  0  0  0  0  0  0  0  0
   -1.7550  -18.6120    8.8430 H   0  0  0  0  0  0  0  0  0  0  0  0
   -2.6204  -17.6604    7.5982 H   0  0  0  0  0  0  0  0  0  0  0  0
   -4.3723  -19.0761    8.5114 H   0  0  0  0  0  0  0  0  0  0  0  0
   -3.7584  -18.8654   10.1660 H   0  0  0  0  0  0  0  0  0  0  0  0
   -5.4941  -17.1777   10.0818 H   0  0  0  0  0  0  0  0  0  0  0  0
   -5.0968  -16.7726    8.4048 H   0  0  0  0  0  0  0  0  0  0  0  0
   -3.8047  -15.1109    9.3069 H   0  0  0  0  0  0  0  0  0  0  0  0
   -3.6797  -15.9016   10.8994 H   0  0  0  0  0  0  0  0  0  0  0  0
    0.1527  -13.2931   10.8640 H   0  0  0  0  0  0  0  0  0  0  0  0
  1  2  2  0
  2  3  1  0
  3  4  1  0
  4  5  1  0
  5  6  2  0
  6  7  1  0
  7  8  2  0
  8  9  1  0
  9 10  2  0
 10 11  1  0
 11 12  1  0
  2 13  1  0
 13 14  2  0
 14 15  1  0
 15 16  2  0
 16 17  1  0
 17 18  1  0
 18 19  1  0
 19 20  1  0
 20 21  1  0
 16 22  1  0
 22 23  2  0
 12  4  2  0
 23 13  1  0
 11  7  1  0
 21 17  1  0
  3 24  1  0
  5 25  1  0
  9 26  1  0
 10 27  1  0
 12 28  1  0
 14 29  1  0
 15 30  1  0
 18 31  1  0
 18 32  1  0
 19 33  1  0
 19 34  1  0
 20 35  1  0
 20 36  1  0
 21 37  1  0
 21 38  1  0
 23 39  1  0
M  END
>  <Energy>  (1008) 
44.181969132934711

>  <compound_id>  (1008) 
20893

>  <target_id>  (1008) 
1

>  <reference_id>  (1008) 
9

>  <inspiration_ids>  (1008) 
[106, 9]

>  <energy_score>  (1008) 
-33.52554820709466

>  <distance_score>  (1008) 
15.47798253419562

>  <path>  (1008) 
/opt/xchem-fragalysis-2/maxwin/BulkDock/SCRATCH/511023/C20893-P9/C20893-P9.minimised.mol

>  <scratch_subdir>  (1008) 
/opt/xchem-fragalysis-2/maxwin/BulkDock/SCRATCH/511023/C20893-P9

>  <fragmenstein_runtime>  (1008) 
9.915255308151245

>  <fragmenstein_outcome>  (1008) 
too moved

>  <fragmenstein_mode>  (1008) 
expansion

>  <fragmenstein_error>  (1008) 


$$$$
C46950-P106
     RDKit          3D

 36 39  0  0  0  0  0  0  0  0999 V2000
    5.5655  -16.9344   15.1184 O   0  0  0  0  0  0  0  0  0  0  0  0
    5.2541  -16.7310   13.9455 C   0  0  0  0  0  0  0  0  0  0  0  0
    5.4973  -15.2844   12.9515 N   0  0  0  0  0  0  0  0  0  0  0  0
    6.3874  -13.7057   13.3109 C   0  0  0  0  0  0  0  0  0  0  0  0
    5.6400  -12.1889   13.6286 C   0  0  0  0  0  0  0  0  0  0  0  0
    5.9841  -10.9187   13.4027 N   0  0  0  0  0  0  0  0  0  0  0  0
    7.2422  -10.7413   12.8756 C   0  0  0  0  0  0  0  0  0  0  0  0
    7.6798   -9.7448   12.1288 N   0  0  0  0  0  0  0  0  0  0  0  0
    8.7949  -10.2256   11.4886 C   0  0  0  0  0  0  0  0  0  0  0  0
    9.1686  -11.4443   12.0006 C   0  0  0  0  0  0  0  0  0  0  0  0
    8.0649  -11.8682   12.7171 N   0  0  0  0  0  0  0  0  0  0  0  0
    7.6171  -13.2347   12.8337 C   0  0  0  0  0  0  0  0  0  0  0  0
    4.3818  -18.0022   13.3132 C   0  0  0  0  0  0  0  0  0  0  0  0
    4.0475  -19.0879   14.1483 C   0  0  0  0  0  0  0  0  0  0  0  0
    3.0869  -20.0751   13.8039 C   0  0  0  0  0  0  0  0  0  0  0  0
    2.4435  -20.0112   12.5812 C   0  0  0  0  0  0  0  0  0  0  0  0
    1.4670  -20.9530   12.2267 N   0  0  0  0  0  0  0  0  0  0  0  0
    0.4887  -20.7570   11.1958 C   0  0  0  0  0  0  0  0  0  0  0  0
   -0.3051  -21.8892   11.8568 C   0  0  0  0  0  0  0  0  0  0  0  0
    0.5159  -21.5640   13.1095 C   0  0  0  0  0  0  0  0  0  0  0  0
    2.7999  -19.0562   11.6994 N   0  0  0  0  0  0  0  0  0  0  0  0
    3.7326  -18.1080   12.0825 C   0  0  0  0  0  0  0  0  0  0  0  0
    5.2111  -15.4605   12.0159 H   0  0  0  0  0  0  0  0  0  0  0  0
    4.7796  -12.2532   14.2744 H   0  0  0  0  0  0  0  0  0  0  0  0
    9.2993   -9.6357   10.7331 H   0  0  0  0  0  0  0  0  0  0  0  0
    9.9907  -12.1031   11.7665 H   0  0  0  0  0  0  0  0  0  0  0  0
    8.3546  -13.7915   12.3024 H   0  0  0  0  0  0  0  0  0  0  0  0
    4.4709  -19.1545   15.1363 H   0  0  0  0  0  0  0  0  0  0  0  0
    2.8470  -20.8526   14.5211 H   0  0  0  0  0  0  0  0  0  0  0  0
    0.8666  -20.9619   10.1918 H   0  0  0  0  0  0  0  0  0  0  0  0
    0.0106  -19.7724   11.2395 H   0  0  0  0  0  0  0  0  0  0  0  0
   -1.3830  -21.7300   11.9396 H   0  0  0  0  0  0  0  0  0  0  0  0
   -0.1122  -22.8821   11.4353 H   0  0  0  0  0  0  0  0  0  0  0  0
    0.0487  -20.8495   13.7957 H   0  0  0  0  0  0  0  0  0  0  0  0
    0.9126  -22.4241   13.6534 H   0  0  0  0  0  0  0  0  0  0  0  0
    3.9062  -17.4055   11.2788 H   0  0  0  0  0  0  0  0  0  0  0  0
  1  2  2  0
  2  3  1  0
  3  4  1  0
  4  5  1  0
  5  6  2  0
  6  7  1  0
  7  8  2  0
  8  9  1  0
  9 10  2  0
 10 11  1  0
 11 12  1  0
  2 13  1  0
 13 14  2  0
 14 15  1  0
 15 16  2  0
 16 17  1  0
 17 18  1  0
 18 19  1  0
 19 20  1  0
 16 21  1  0
 21 22  2  0
 12  4  2  0
 22 13  1  0
 11  7  1  0
 20 17  1  0
  3 23  1  0
  5 24  1  0
  9 25  1  0
 10 26  1  0
 12 27  1  0
 14 28  1  0
 15 29  1  0
 18 30  1  0
 18 31  1  0
 19 32  1  0
 19 33  1  0
 20 34  1  0
 20 35  1  0
 22 36  1  0
M  END
>  <Energy>  (1009) 
236.41723713273106

>  <compound_id>  (1009) 
46950

>  <target_id>  (1009) 
1

>  <reference_id>  (1009) 
106

>  <inspiration_ids>  (1009) 
[106, 9]

>  <energy_score>  (1009) 
146.79268024973385

>  <distance_score>  (1009) 
14.939894637450523

>  <path>  (1009) 
/opt/xchem-fragalysis-2/maxwin/BulkDock/SCRATCH/511023/C46950-P106/C46950-P106.minimised.mol

>  <scratch_subdir>  (1009) 
/opt/xchem-fragalysis-2/maxwin/BulkDock/SCRATCH/511023/C46950-P106

>  <fragmenstein_runtime>  (1009) 
10.56471848487854

>  <fragmenstein_outcome>  (1009) 
too moved

>  <fragmenstein_mode>  (1009) 
expansion

>  <fragmenstein_error>  (1009) 


$$$$
C46950-P9
     RDKit          3D

 36 39  0  0  0  0  0  0  0  0999 V2000
   -2.3146   -8.8602   19.9181 O   0  0  0  0  0  0  0  0  0  0  0  0
   -2.7471   -8.2501   18.9790 C   0  0  0  0  0  0  0  0  0  0  0  0
   -2.1724   -7.1259   18.2212 N   0  0  0  0  0  0  0  0  0  0  0  0
   -0.9055   -6.4952   18.3123 C   0  0  0  0  0  0  0  0  0  0  0  0
    0.2317   -6.9591   19.2233 C   0  0  0  0  0  0  0  0  0  0  0  0
    1.4750   -6.5509   19.2332 N   0  0  0  0  0  0  0  0  0  0  0  0
    1.8282   -5.6135   18.3089 C   0  0  0  0  0  0  0  0  0  0  0  0
    3.0104   -5.0854   18.0436 N   0  0  0  0  0  0  0  0  0  0  0  0
    2.8100   -4.2062   17.0136 C   0  0  0  0  0  0  0  0  0  0  0  0
    1.4893   -4.1915   16.6361 C   0  0  0  0  0  0  0  0  0  0  0  0
    0.8604   -5.0954   17.4582 N   0  0  0  0  0  0  0  0  0  0  0  0
   -0.4779   -5.5250   17.4700 C   0  0  0  0  0  0  0  0  0  0  0  0
   -4.0976   -8.8803   18.4637 C   0  0  0  0  0  0  0  0  0  0  0  0
   -4.6757   -8.7303   17.2021 C   0  0  0  0  0  0  0  0  0  0  0  0
   -5.8039   -9.5063   16.8080 C   0  0  0  0  0  0  0  0  0  0  0  0
   -6.3474  -10.4750   17.6482 C   0  0  0  0  0  0  0  0  0  0  0  0
   -7.4685  -11.2207   17.2679 N   0  0  0  0  0  0  0  0  0  0  0  0
   -7.8913  -11.5791   15.9488 C   0  0  0  0  0  0  0  0  0  0  0  0
   -8.7684  -12.6461   16.6141 C   0  0  0  0  0  0  0  0  0  0  0  0
   -7.8251  -12.4979   17.8131 C   0  0  0  0  0  0  0  0  0  0  0  0
   -5.8132  -10.6598   18.8656 N   0  0  0  0  0  0  0  0  0  0  0  0
   -4.7419   -9.8742   19.2318 C   0  0  0  0  0  0  0  0  0  0  0  0
   -2.8529   -6.8015   17.5400 H   0  0  0  0  0  0  0  0  0  0  0  0
   -0.0515   -7.7309   19.9573 H   0  0  0  0  0  0  0  0  0  0  0  0
    3.6196   -3.6266   16.5931 H   0  0  0  0  0  0  0  0  0  0  0  0
    0.9623   -3.6379   15.8731 H   0  0  0  0  0  0  0  0  0  0  0  0
   -1.1154   -5.0739   16.7213 H   0  0  0  0  0  0  0  0  0  0  0  0
   -4.2846   -8.0340   16.4687 H   0  0  0  0  0  0  0  0  0  0  0  0
   -6.2316   -9.3411   15.8224 H   0  0  0  0  0  0  0  0  0  0  0  0
   -7.0823  -11.9718   15.3264 H   0  0  0  0  0  0  0  0  0  0  0  0
   -8.4277  -10.7817   15.4296 H   0  0  0  0  0  0  0  0  0  0  0  0
   -9.7985  -12.3269   16.8082 H   0  0  0  0  0  0  0  0  0  0  0  0
   -8.7739  -13.6263   16.1313 H   0  0  0  0  0  0  0  0  0  0  0  0
   -8.3053  -12.4367   18.7921 H   0  0  0  0  0  0  0  0  0  0  0  0
   -6.9867  -13.2023   17.8324 H   0  0  0  0  0  0  0  0  0  0  0  0
   -4.4149  -10.0863   20.2465 H   0  0  0  0  0  0  0  0  0  0  0  0
  1  2  2  0
  2  3  1  0
  3  4  1  0
  4  5  1  0
  5  6  2  0
  6  7  1  0
  7  8  2  0
  8  9  1  0
  9 10  2  0
 10 11  1  0
 11 12  1  0
  2 13  1  0
 13 14  2  0
 14 15  1  0
 15 16  2  0
 16 17  1  0
 17 18  1  0
 18 19  1  0
 19 20  1  0
 16 21  1  0
 21 22  2  0
 12  4  2  0
 22 13  1  0
 11  7  1  0
 20 17  1  0
  3 23  1  0
  5 24  1  0
  9 25  1  0
 10 26  1  0
 12 27  1  0
 14 28  1  0
 15 29  1  0
 18 30  1  0
 18 31  1  0
 19 32  1  0
 19 33  1  0
 20 34  1  0
 20 35  1  0
 22 36  1  0
M  END
>  <Energy>  (1010) 
55.531299423982006

>  <compound_id>  (1010) 
46950

>  <target_id>  (1010) 
1

>  <reference_id>  (1010) 
9

>  <inspiration_ids>  (1010) 
[106, 9]

>  <energy_score>  (1010) 
-34.093257459018474

>  <distance_score>  (1010) 
15.621776681343484

>  <path>  (1010) 
/opt/xchem-fragalysis-2/maxwin/BulkDock/SCRATCH/511023/C46950-P9/C46950-P9.minimised.mol

>  <scratch_subdir>  (1010) 
/opt/xchem-fragalysis-2/maxwin/BulkDock/SCRATCH/511023/C46950-P9

>  <fragmenstein_runtime>  (1010) 
8.916423320770264

>  <fragmenstein_outcome>  (1010) 
too moved

>  <fragmenstein_mode>  (1010) 
expansion

>  <fragmenstein_error>  (1010) 


$$$$
C46951-P106
     RDKit          3D

 43 45  0  0  0  0  0  0  0  0999 V2000
    9.2303  -21.8913   11.6770 N   0  0  0  0  0  0  0  0  0  0  0  0
    9.1145  -21.2513   12.6376 C   0  0  0  0  0  0  0  0  0  0  0  0
    8.9168  -20.5113   13.8940 C   0  0  0  0  0  0  0  0  0  0  0  0
    7.8234  -19.1413   13.7671 C   0  0  0  0  0  0  0  0  0  0  0  0
    8.2840  -18.0041   12.5496 N   0  0  0  0  0  0  0  0  0  0  0  0
    7.1345  -19.1418   13.1759 C   0  0  0  0  0  0  0  0  0  0  0  0
    5.4062  -18.8659   13.6630 C   0  0  0  0  0  0  0  0  0  0  0  0
    4.3556  -19.0253   12.5171 C   0  0  0  0  0  0  0  0  0  0  0  0
    3.1080  -19.7261   13.0885 C   0  0  0  0  0  0  0  0  0  0  0  0
    3.3719  -19.8795   14.5732 C   0  0  0  0  0  0  0  0  0  0  0  0
    4.8976  -19.9345   14.6621 C   0  0  0  0  0  0  0  0  0  0  0  0
    9.6213  -17.5231   12.9037 C   0  0  0  0  0  0  0  0  0  0  0  0
   10.5772  -18.0896   12.4656 O   0  0  0  0  0  0  0  0  0  0  0  0
    9.5227  -16.3183   13.6947 N   0  0  0  0  0  0  0  0  0  0  0  0
   10.4993  -15.4079   14.1027 C   0  0  0  0  0  0  0  0  0  0  0  0
   11.5691  -14.9247   13.1321 C   0  0  0  0  0  0  0  0  0  0  0  0
   12.2150  -13.7886   13.1623 N   0  0  0  0  0  0  0  0  0  0  0  0
   11.9428  -12.9572   14.2075 C   0  0  0  0  0  0  0  0  0  0  0  0
   12.3204  -11.7101   14.4102 N   0  0  0  0  0  0  0  0  0  0  0  0
   11.7431  -11.3376   15.5926 C   0  0  0  0  0  0  0  0  0  0  0  0
   11.0392  -12.3727   16.1480 C   0  0  0  0  0  0  0  0  0  0  0  0
   11.1139  -13.3912   15.2366 N   0  0  0  0  0  0  0  0  0  0  0  0
   10.4079  -14.5995   15.1783 C   0  0  0  0  0  0  0  0  0  0  0  0
    8.4778  -21.1708   14.6524 H   0  0  0  0  0  0  0  0  0  0  0  0
    9.8902  -20.1642   14.2642 H   0  0  0  0  0  0  0  0  0  0  0  0
    7.3731  -18.7932   14.8835 H   0  0  0  0  0  0  0  0  0  0  0  0
    8.6517  -18.6554   14.4249 H   0  0  0  0  0  0  0  0  0  0  0  0
    6.6693  -18.7450   12.1789 H   0  0  0  0  0  0  0  0  0  0  0  0
    7.0259  -20.1662   12.5213 H   0  0  0  0  0  0  0  0  0  0  0  0
    5.3442  -17.8616   14.0986 H   0  0  0  0  0  0  0  0  0  0  0  0
    4.0993  -18.0417   12.1093 H   0  0  0  0  0  0  0  0  0  0  0  0
    4.7535  -19.6247   11.6905 H   0  0  0  0  0  0  0  0  0  0  0  0
    2.1921  -19.1623   12.8885 H   0  0  0  0  0  0  0  0  0  0  0  0
    2.9977  -20.7112   12.6203 H   0  0  0  0  0  0  0  0  0  0  0  0
    2.8975  -20.7708   14.9934 H   0  0  0  0  0  0  0  0  0  0  0  0
    3.0012  -19.0046   15.1186 H   0  0  0  0  0  0  0  0  0  0  0  0
    5.2494  -19.7360   15.6789 H   0  0  0  0  0  0  0  0  0  0  0  0
    5.2575  -20.9272   14.3659 H   0  0  0  0  0  0  0  0  0  0  0  0
    8.5538  -16.1753   13.9587 H   0  0  0  0  0  0  0  0  0  0  0  0
   11.7701  -15.6096   12.2903 H   0  0  0  0  0  0  0  0  0  0  0  0
   11.8453  -10.3411   15.9864 H   0  0  0  0  0  0  0  0  0  0  0  0
   10.4669  -12.4339   17.0555 H   0  0  0  0  0  0  0  0  0  0  0  0
    9.7104  -14.7816   15.9752 H   0  0  0  0  0  0  0  0  0  0  0  0
  1  2  3  0
  2  3  1  0
  3  4  1  0
  4  5  1  0
  5  6  1  0
  6  7  1  0
  7  8  1  0
  8  9  1  0
  9 10  1  0
 10 11  1  0
  5 12  1  0
 12 13  2  0
 12 14  1  0
 14 15  1  0
 15 16  1  0
 16 17  2  0
 17 18  1  0
 18 19  2  0
 19 20  1  0
 20 21  2  0
 21 22  1  0
 22 23  1  0
 11  7  1  0
 23 15  2  0
 22 18  1  0
  3 24  1  0
  3 25  1  0
  4 26  1  0
  4 27  1  0
  6 28  1  0
  6 29  1  0
  7 30  1  0
  8 31  1  0
  8 32  1  0
  9 33  1  0
  9 34  1  0
 10 35  1  0
 10 36  1  0
 11 37  1  0
 11 38  1  0
 14 39  1  0
 16 40  1  0
 20 41  1  0
 21 42  1  0
 23 43  1  0
M  END
>  <Energy>  (1011) 
583.18041085836592

>  <compound_id>  (1011) 
46951

>  <target_id>  (1011) 
1

>  <reference_id>  (1011) 
106

>  <inspiration_ids>  (1011) 
[106, 9]

>  <energy_score>  (1011) 
537.8794768892028

>  <distance_score>  (1011) 
15.65874052163871

>  <path>  (1011) 
/opt/xchem-fragalysis-2/maxwin/BulkDock/SCRATCH/511023/C46951-P106/C46951-P106.minimised.mol

>  <scratch_subdir>  (1011) 
/opt/xchem-fragalysis-2/maxwin/BulkDock/SCRATCH/511023/C46951-P106

>  <fragmenstein_runtime>  (1011) 
17.355268478393555

>  <fragmenstein_outcome>  (1011) 
too moved

>  <fragmenstein_mode>  (1011) 
expansion

>  <fragmenstein_error>  (1011) 


$$$$
C46951-P9
     RDKit          3D

 43 45  0  0  0  0  0  0  0  0999 V2000
    5.4505  -18.2792   10.1113 N   0  0  0  0  0  0  0  0  0  0  0  0
    5.3911  -18.1691   11.2650 C   0  0  0  0  0  0  0  0  0  0  0  0
    5.3440  -18.0561   12.7269 C   0  0  0  0  0  0  0  0  0  0  0  0
    6.4701  -18.8810   13.3482 C   0  0  0  0  0  0  0  0  0  0  0  0
    6.5276  -18.8462   14.8132 N   0  0  0  0  0  0  0  0  0  0  0  0
    5.9973  -20.0189   15.5756 C   0  0  0  0  0  0  0  0  0  0  0  0
    4.4959  -20.4323   15.1819 C   0  0  0  0  0  0  0  0  0  0  0  0
    3.3708  -19.5163   15.6934 C   0  0  0  0  0  0  0  0  0  0  0  0
    2.0713  -20.3149   15.4948 C   0  0  0  0  0  0  0  0  0  0  0  0
    2.4790  -21.7853   15.5165 C   0  0  0  0  0  0  0  0  0  0  0  0
    4.0016  -21.7863   15.7297 C   0  0  0  0  0  0  0  0  0  0  0  0
    7.0922  -17.6736   15.3624 C   0  0  0  0  0  0  0  0  0  0  0  0
    6.2913  -16.8054   15.5796 O   0  0  0  0  0  0  0  0  0  0  0  0
    8.5559  -17.6749   15.4775 N   0  0  0  0  0  0  0  0  0  0  0  0
    9.4637  -16.6296   15.7848 C   0  0  0  0  0  0  0  0  0  0  0  0
    9.7627  -16.1234   17.1867 C   0  0  0  0  0  0  0  0  0  0  0  0
   10.4083  -15.0452   17.5455 N   0  0  0  0  0  0  0  0  0  0  0  0
   10.8982  -14.2587   16.5453 C   0  0  0  0  0  0  0  0  0  0  0  0
   11.4637  -13.0644   16.6040 N   0  0  0  0  0  0  0  0  0  0  0  0
   11.8339  -12.7595   15.3227 C   0  0  0  0  0  0  0  0  0  0  0  0
   11.5153  -13.7920   14.4711 C   0  0  0  0  0  0  0  0  0  0  0  0
   10.8206  -14.7063   15.2326 N   0  0  0  0  0  0  0  0  0  0  0  0
   10.1068  -15.8663   14.8657 C   0  0  0  0  0  0  0  0  0  0  0  0
    4.3681  -18.3890   13.0886 H   0  0  0  0  0  0  0  0  0  0  0  0
    5.4432  -17.0072   13.0068 H   0  0  0  0  0  0  0  0  0  0  0  0
    6.4240  -19.9282   13.0251 H   0  0  0  0  0  0  0  0  0  0  0  0
    7.4294  -18.4938   12.9777 H   0  0  0  0  0  0  0  0  0  0  0  0
    6.6673  -20.8595   15.3651 H   0  0  0  0  0  0  0  0  0  0  0  0
    6.0546  -19.7867   16.6442 H   0  0  0  0  0  0  0  0  0  0  0  0
    4.4298  -20.4892   14.0887 H   0  0  0  0  0  0  0  0  0  0  0  0
    3.3388  -18.5565   15.1706 H   0  0  0  0  0  0  0  0  0  0  0  0
    3.5141  -19.3064   16.7606 H   0  0  0  0  0  0  0  0  0  0  0  0
    1.6184  -20.0669   14.5281 H   0  0  0  0  0  0  0  0  0  0  0  0
    1.3395  -20.0796   16.2739 H   0  0  0  0  0  0  0  0  0  0  0  0
    2.2289  -22.2569   14.5595 H   0  0  0  0  0  0  0  0  0  0  0  0
    1.9670  -22.3432   16.3067 H   0  0  0  0  0  0  0  0  0  0  0  0
    4.4798  -22.6313   15.2247 H   0  0  0  0  0  0  0  0  0  0  0  0
    4.2271  -21.8633   16.8004 H   0  0  0  0  0  0  0  0  0  0  0  0
    8.9142  -18.5559   15.1315 H   0  0  0  0  0  0  0  0  0  0  0  0
    9.3859  -16.7785   17.9916 H   0  0  0  0  0  0  0  0  0  0  0  0
   12.3308  -11.8278   15.0867 H   0  0  0  0  0  0  0  0  0  0  0  0
   11.6795  -13.9372   13.4141 H   0  0  0  0  0  0  0  0  0  0  0  0
   10.0213  -16.0533   13.8020 H   0  0  0  0  0  0  0  0  0  0  0  0
  1  2  3  0
  2  3  1  0
  3  4  1  0
  4  5  1  0
  5  6  1  0
  6  7  1  0
  7  8  1  0
  8  9  1  0
  9 10  1  0
 10 11  1  0
  5 12  1  0
 12 13  2  0
 12 14  1  0
 14 15  1  0
 15 16  1  0
 16 17  2  0
 17 18  1  0
 18 19  2  0
 19 20  1  0
 20 21  2  0
 21 22  1  0
 22 23  1  0
 11  7  1  0
 23 15  2  0
 22 18  1  0
  3 24  1  0
  3 25  1  0
  4 26  1  0
  4 27  1  0
  6 28  1  0
  6 29  1  0
  7 30  1  0
  8 31  1  0
  8 32  1  0
  9 33  1  0
  9 34  1  0
 10 35  1  0
 10 36  1  0
 11 37  1  0
 11 38  1  0
 14 39  1  0
 16 40  1  0
 20 41  1  0
 21 42  1  0
 23 43  1  0
M  END
>  <Energy>  (1012) 
38.125336192979567

>  <compound_id>  (1012) 
46951

>  <target_id>  (1012) 
1

>  <reference_id>  (1012) 
9

>  <inspiration_ids>  (1012) 
[106, 9]

>  <energy_score>  (1012) 
-7.1755977761930865

>  <distance_score>  (1012) 
15.733835778284245

>  <path>  (1012) 
/opt/xchem-fragalysis-2/maxwin/BulkDock/SCRATCH/511023/C46951-P9/C46951-P9.minimised.mol

>  <scratch_subdir>  (1012) 
/opt/xchem-fragalysis-2/maxwin/BulkDock/SCRATCH/511023/C46951-P9

>  <fragmenstein_runtime>  (1012) 
17.223286151885986

>  <fragmenstein_outcome>  (1012) 
too moved

>  <fragmenstein_mode>  (1012) 
expansion

>  <fragmenstein_error>  (1012) 


$$$$
C46952-P106
     RDKit          3D

 44 46  0  0  0  0  0  0  0  0999 V2000
   -1.4425  -13.2331   12.9636 C   0  0  0  0  0  0  0  0  0  0  0  0
   -0.0995  -12.4611   13.2690 C   0  0  0  0  0  0  0  0  0  0  0  0
    1.1371  -13.0258   14.4905 O   0  0  0  0  0  0  0  0  0  0  0  0
    2.4560  -13.4046   14.4509 N   0  0  0  0  0  0  0  0  0  0  0  0
    1.2375  -14.1208   12.9487 C   0  0  0  0  0  0  0  0  0  0  0  0
    0.4131  -15.6510   12.0890 C   0  0  0  0  0  0  0  0  0  0  0  0
    0.7215  -17.2203   11.9400 C   0  0  0  0  0  0  0  0  0  0  0  0
   -0.1636  -18.0144   10.9417 C   0  0  0  0  0  0  0  0  0  0  0  0
   -1.5400  -17.4078   10.8093 C   0  0  0  0  0  0  0  0  0  0  0  0
   -1.4116  -15.9879   10.2644 C   0  0  0  0  0  0  0  0  0  0  0  0
   -0.0741  -15.2832   10.6333 C   0  0  0  0  0  0  0  0  0  0  0  0
    4.2739  -12.1877   14.2794 C   0  0  0  0  0  0  0  0  0  0  0  0
    3.9520  -11.0272   14.3269 O   0  0  0  0  0  0  0  0  0  0  0  0
    6.2728  -12.2250   13.7932 C   0  0  0  0  0  0  0  0  0  0  0  0
    6.3567  -10.6491   14.0644 C   0  0  0  0  0  0  0  0  0  0  0  0
    7.8394  -10.1947   15.2375 N   0  0  0  0  0  0  0  0  0  0  0  0
    8.6716  -11.1049   15.6075 C   0  0  0  0  0  0  0  0  0  0  0  0
    9.8276  -11.0931   16.3099 N   0  0  0  0  0  0  0  0  0  0  0  0
   10.8927  -11.4057   15.6616 C   0  0  0  0  0  0  0  0  0  0  0  0
   10.8907  -11.6527   14.2161 C   0  0  0  0  0  0  0  0  0  0  0  0
    9.8174  -11.0437   13.6285 C   0  0  0  0  0  0  0  0  0  0  0  0
    8.1119  -11.3084   14.0921 N   0  0  0  0  0  0  0  0  0  0  0  0
   -2.2451  -12.5048   12.7741 H   0  0  0  0  0  0  0  0  0  0  0  0
   -1.7800  -13.8723   13.7806 H   0  0  0  0  0  0  0  0  0  0  0  0
   -1.4090  -13.7922   12.0427 H   0  0  0  0  0  0  0  0  0  0  0  0
    0.3677  -11.9498   12.4124 H   0  0  0  0  0  0  0  0  0  0  0  0
   -0.7094  -11.7556   13.7828 H   0  0  0  0  0  0  0  0  0  0  0  0
    0.3121  -14.3072   13.4939 H   0  0  0  0  0  0  0  0  0  0  0  0
    1.0321  -13.5530   12.0142 H   0  0  0  0  0  0  0  0  0  0  0  0
   -0.5541  -15.6802   12.5998 H   0  0  0  0  0  0  0  0  0  0  0  0
    1.7560  -17.4387   11.6637 H   0  0  0  0  0  0  0  0  0  0  0  0
    0.4996  -17.7489   12.8570 H   0  0  0  0  0  0  0  0  0  0  0  0
   -0.2375  -19.0590   11.2673 H   0  0  0  0  0  0  0  0  0  0  0  0
    0.3281  -18.0334    9.9606 H   0  0  0  0  0  0  0  0  0  0  0  0
   -2.0327  -17.3947   11.7884 H   0  0  0  0  0  0  0  0  0  0  0  0
   -2.1577  -18.0123   10.1376 H   0  0  0  0  0  0  0  0  0  0  0  0
   -1.4920  -16.0055    9.1704 H   0  0  0  0  0  0  0  0  0  0  0  0
   -2.2603  -15.3934   10.6210 H   0  0  0  0  0  0  0  0  0  0  0  0
    0.7033  -15.5838    9.9178 H   0  0  0  0  0  0  0  0  0  0  0  0
   -0.1910  -14.2072   10.4769 H   0  0  0  0  0  0  0  0  0  0  0  0
    5.4948   -9.9980   14.0633 H   0  0  0  0  0  0  0  0  0  0  0  0
   11.8657  -11.4826   16.1721 H   0  0  0  0  0  0  0  0  0  0  0  0
   11.4171  -12.5111   13.8314 H   0  0  0  0  0  0  0  0  0  0  0  0
    9.9391  -10.0967   14.1042 H   0  0  0  0  0  0  0  0  0  0  0  0
  1  2  1  0
  2  3  1  0
  3  4  1  0
  4  5  1  0
  5  6  1  0
  6  7  1  0
  7  8  1  0
  8  9  1  0
  9 10  1  0
 10 11  1  0
  4 12  1  0
 12 13  2  0
 12 14  1  0
 14 15  2  0
 15 16  1  0
 16 17  2  0
 17 18  1  0
 18 19  2  0
 19 20  1  0
 20 21  2  0
 21 22  1  0
 11  6  1  0
 22 14  1  0
 22 17  1  0
  1 23  1  0
  1 24  1  0
  1 25  1  0
  2 26  1  0
  2 27  1  0
  5 28  1  0
  5 29  1  0
  6 30  1  0
  7 31  1  0
  7 32  1  0
  8 33  1  0
  8 34  1  0
  9 35  1  0
  9 36  1  0
 10 37  1  0
 10 38  1  0
 11 39  1  0
 11 40  1  0
 15 41  1  0
 19 42  1  0
 20 43  1  0
 21 44  1  0
M  END
>  <Energy>  (1013) 
1564.508817785664

>  <compound_id>  (1013) 
46952

>  <target_id>  (1013) 
1

>  <reference_id>  (1013) 
106

>  <inspiration_ids>  (1013) 
[106, 9]

>  <energy_score>  (1013) 
1486.3886985941567

>  <distance_score>  (1013) 
13.57639132509349

>  <path>  (1013) 
/opt/xchem-fragalysis-2/maxwin/BulkDock/SCRATCH/511023/C46952-P106/C46952-P106.minimised.mol

>  <scratch_subdir>  (1013) 
/opt/xchem-fragalysis-2/maxwin/BulkDock/SCRATCH/511023/C46952-P106

>  <fragmenstein_runtime>  (1013) 
17.013545274734497

>  <fragmenstein_outcome>  (1013) 
too moved

>  <fragmenstein_mode>  (1013) 
expansion

>  <fragmenstein_error>  (1013) 


$$$$
C46952-P9
     RDKit          3D

 44 46  0  0  0  0  0  0  0  0999 V2000
   -6.7172   -7.1299   16.7391 C   0  0  0  0  0  0  0  0  0  0  0  0
   -5.8798   -7.8707   17.7651 C   0  0  0  0  0  0  0  0  0  0  0  0
   -5.0728   -8.8687   17.1289 O   0  0  0  0  0  0  0  0  0  0  0  0
   -3.8926   -8.2515   16.6426 N   0  0  0  0  0  0  0  0  0  0  0  0
   -4.1258   -9.2714   15.5162 C   0  0  0  0  0  0  0  0  0  0  0  0
   -4.8006  -10.8277   15.5867 C   0  0  0  0  0  0  0  0  0  0  0  0
   -4.6876  -11.6995   16.8709 C   0  0  0  0  0  0  0  0  0  0  0  0
   -5.6057  -12.9513   16.9069 C   0  0  0  0  0  0  0  0  0  0  0  0
   -5.9997  -13.4499   15.5273 C   0  0  0  0  0  0  0  0  0  0  0  0
   -6.7216  -12.3557   14.7449 C   0  0  0  0  0  0  0  0  0  0  0  0
   -6.2656  -10.9135   15.0838 C   0  0  0  0  0  0  0  0  0  0  0  0
   -2.5300   -8.3079   17.1234 C   0  0  0  0  0  0  0  0  0  0  0  0
   -2.0438   -8.9626   18.0060 O   0  0  0  0  0  0  0  0  0  0  0  0
   -1.5932   -7.3019   16.4746 C   0  0  0  0  0  0  0  0  0  0  0  0
   -1.7830   -6.5021   15.3564 C   0  0  0  0  0  0  0  0  0  0  0  0
   -0.7654   -5.6024   15.1435 N   0  0  0  0  0  0  0  0  0  0  0  0
    0.0910   -5.7628   16.1257 C   0  0  0  0  0  0  0  0  0  0  0  0
    1.2677   -5.0801   16.3305 N   0  0  0  0  0  0  0  0  0  0  0  0
    2.0053   -5.4804   17.3187 C   0  0  0  0  0  0  0  0  0  0  0  0
    1.6741   -6.5931   18.2436 C   0  0  0  0  0  0  0  0  0  0  0  0
    0.4985   -7.2080   18.0191 C   0  0  0  0  0  0  0  0  0  0  0  0
   -0.3232   -6.8282   16.9509 N   0  0  0  0  0  0  0  0  0  0  0  0
   -7.3823   -6.4121   17.2271 H   0  0  0  0  0  0  0  0  0  0  0  0
   -7.3213   -7.8320   16.1553 H   0  0  0  0  0  0  0  0  0  0  0  0
   -6.0814   -6.5899   16.0302 H   0  0  0  0  0  0  0  0  0  0  0  0
   -6.5396   -8.3919   18.4662 H   0  0  0  0  0  0  0  0  0  0  0  0
   -5.2593   -7.1808   18.3495 H   0  0  0  0  0  0  0  0  0  0  0  0
   -4.7421   -8.7236   14.7847 H   0  0  0  0  0  0  0  0  0  0  0  0
   -3.1656   -9.3802   14.9978 H   0  0  0  0  0  0  0  0  0  0  0  0
   -4.2432  -11.3500   14.7977 H   0  0  0  0  0  0  0  0  0  0  0  0
   -3.6563  -12.0330   17.0025 H   0  0  0  0  0  0  0  0  0  0  0  0
   -4.9108  -11.1118   17.7669 H   0  0  0  0  0  0  0  0  0  0  0  0
   -6.5154  -12.7019   17.4682 H   0  0  0  0  0  0  0  0  0  0  0  0
   -5.1054  -13.7486   17.4683 H   0  0  0  0  0  0  0  0  0  0  0  0
   -6.6364  -14.3384   15.6031 H   0  0  0  0  0  0  0  0  0  0  0  0
   -5.0969  -13.7533   14.9831 H   0  0  0  0  0  0  0  0  0  0  0  0
   -7.8022  -12.4249   14.9203 H   0  0  0  0  0  0  0  0  0  0  0  0
   -6.5757  -12.5367   13.6733 H   0  0  0  0  0  0  0  0  0  0  0  0
   -6.3989  -10.2876   14.1938 H   0  0  0  0  0  0  0  0  0  0  0  0
   -6.9303  -10.5008   15.8532 H   0  0  0  0  0  0  0  0  0  0  0  0
   -2.6393   -6.5085   14.6926 H   0  0  0  0  0  0  0  0  0  0  0  0
    2.9616   -4.9693   17.5187 H   0  0  0  0  0  0  0  0  0  0  0  0
    2.3498   -6.8501   19.0467 H   0  0  0  0  0  0  0  0  0  0  0  0
    0.1434   -8.0135   18.6479 H   0  0  0  0  0  0  0  0  0  0  0  0
  1  2  1  0
  2  3  1  0
  3  4  1  0
  4  5  1  0
  5  6  1  0
  6  7  1  0
  7  8  1  0
  8  9  1  0
  9 10  1  0
 10 11  1  0
  4 12  1  0
 12 13  2  0
 12 14  1  0
 14 15  2  0
 15 16  1  0
 16 17  2  0
 17 18  1  0
 18 19  2  0
 19 20  1  0
 20 21  2  0
 21 22  1  0
 11  6  1  0
 22 14  1  0
 22 17  1  0
  1 23  1  0
  1 24  1  0
  1 25  1  0
  2 26  1  0
  2 27  1  0
  5 28  1  0
  5 29  1  0
  6 30  1  0
  7 31  1  0
  7 32  1  0
  8 33  1  0
  8 34  1  0
  9 35  1  0
  9 36  1  0
 10 37  1  0
 10 38  1  0
 11 39  1  0
 11 40  1  0
 15 41  1  0
 19 42  1  0
 20 43  1  0
 21 44  1  0
M  END
>  <Energy>  (1014) 
111.42313017147089

>  <compound_id>  (1014) 
46952

>  <target_id>  (1014) 
1

>  <reference_id>  (1014) 
9

>  <inspiration_ids>  (1014) 
[106, 9]

>  <energy_score>  (1014) 
33.303010979958515

>  <distance_score>  (1014) 
15.010684184821551

>  <path>  (1014) 
/opt/xchem-fragalysis-2/maxwin/BulkDock/SCRATCH/511023/C46952-P9/C46952-P9.minimised.mol

>  <scratch_subdir>  (1014) 
/opt/xchem-fragalysis-2/maxwin/BulkDock/SCRATCH/511023/C46952-P9

>  <fragmenstein_runtime>  (1014) 
12.549741983413696

>  <fragmenstein_outcome>  (1014) 
too moved

>  <fragmenstein_mode>  (1014) 
expansion

>  <fragmenstein_error>  (1014) 


$$$$
C46953-P106
     RDKit          3D

 50 52  0  0  0  0  0  0  0  0999 V2000
    6.6546  -20.8122   19.0744 C   0  0  0  0  0  0  0  0  0  0  0  0
    6.6292  -19.2857   18.8297 C   0  0  0  0  0  0  0  0  0  0  0  0
    5.2830  -18.7230   19.3374 C   0  0  0  0  0  0  0  0  0  0  0  0
    6.7743  -18.8572   17.3076 N   0  0  0  0  0  0  0  0  0  0  0  0
    8.2294  -18.5654   17.7595 C   0  0  0  0  0  0  0  0  0  0  0  0
    9.1998  -17.9903   16.6219 C   0  0  0  0  0  0  0  0  0  0  0  0
   10.1009  -16.7307   16.9737 N   0  0  0  0  0  0  0  0  0  0  0  0
   10.9199  -17.7793   17.6647 C   0  0  0  0  0  0  0  0  0  0  0  0
   10.9429  -15.9178   16.1400 C   0  0  0  0  0  0  0  0  0  0  0  0
   11.2486  -16.0407   14.9819 O   0  0  0  0  0  0  0  0  0  0  0  0
   11.4392  -14.6397   16.8300 C   0  0  0  0  0  0  0  0  0  0  0  0
   12.2599  -13.6009   16.0734 C   0  0  0  0  0  0  0  0  0  0  0  0
   12.8043  -12.5104   16.5381 N   0  0  0  0  0  0  0  0  0  0  0  0
   12.5980  -12.2697   17.8624 C   0  0  0  0  0  0  0  0  0  0  0  0
   13.1645  -11.3846   18.6598 N   0  0  0  0  0  0  0  0  0  0  0  0
   12.5363  -11.5035   19.8712 C   0  0  0  0  0  0  0  0  0  0  0  0
   11.6220  -12.5239   19.8438 C   0  0  0  0  0  0  0  0  0  0  0  0
   11.7368  -13.0748   18.5948 N   0  0  0  0  0  0  0  0  0  0  0  0
   11.1900  -14.2513   18.0935 C   0  0  0  0  0  0  0  0  0  0  0  0
    6.2401  -19.8956   16.4425 C   0  0  0  0  0  0  0  0  0  0  0  0
    6.7860  -20.8472   15.9309 O   0  0  0  0  0  0  0  0  0  0  0  0
    4.6508  -19.6971   16.2188 C   0  0  0  0  0  0  0  0  0  0  0  0
    3.6839  -20.8300   16.7520 C   0  0  0  0  0  0  0  0  0  0  0  0
    2.7743  -20.5692   15.5386 C   0  0  0  0  0  0  0  0  0  0  0  0
    4.0374  -20.0554   14.8142 C   0  0  0  0  0  0  0  0  0  0  0  0
    6.6137  -21.0188   20.1500 H   0  0  0  0  0  0  0  0  0  0  0  0
    5.7990  -21.3199   18.6210 H   0  0  0  0  0  0  0  0  0  0  0  0
    7.5683  -21.2713   18.6855 H   0  0  0  0  0  0  0  0  0  0  0  0
    7.3156  -18.8490   19.5755 H   0  0  0  0  0  0  0  0  0  0  0  0
    5.1835  -18.8855   20.4166 H   0  0  0  0  0  0  0  0  0  0  0  0
    4.4226  -19.1912   18.8622 H   0  0  0  0  0  0  0  0  0  0  0  0
    5.2246  -17.6453   19.1535 H   0  0  0  0  0  0  0  0  0  0  0  0
    8.2401  -17.7536   18.5020 H   0  0  0  0  0  0  0  0  0  0  0  0
    8.7306  -19.4874   18.0875 H   0  0  0  0  0  0  0  0  0  0  0  0
    9.7061  -18.7703   16.0301 H   0  0  0  0  0  0  0  0  0  0  0  0
    8.5332  -17.5524   15.8632 H   0  0  0  0  0  0  0  0  0  0  0  0
   11.4055  -18.5002   16.9902 H   0  0  0  0  0  0  0  0  0  0  0  0
   10.4562  -18.2241   18.5509 H   0  0  0  0  0  0  0  0  0  0  0  0
   11.7796  -17.2413   18.0930 H   0  0  0  0  0  0  0  0  0  0  0  0
   12.4055  -13.8239   15.0024 H   0  0  0  0  0  0  0  0  0  0  0  0
   12.7850  -10.8571   20.7029 H   0  0  0  0  0  0  0  0  0  0  0  0
   10.9593  -12.9255   20.5960 H   0  0  0  0  0  0  0  0  0  0  0  0
   10.5833  -14.8316   18.7766 H   0  0  0  0  0  0  0  0  0  0  0  0
    4.3139  -18.6977   16.5320 H   0  0  0  0  0  0  0  0  0  0  0  0
    3.2119  -20.6531   17.7209 H   0  0  0  0  0  0  0  0  0  0  0  0
    4.1328  -21.8305   16.7585 H   0  0  0  0  0  0  0  0  0  0  0  0
    2.2971  -21.4487   15.1004 H   0  0  0  0  0  0  0  0  0  0  0  0
    2.0172  -19.7975   15.7149 H   0  0  0  0  0  0  0  0  0  0  0  0
    4.5826  -20.8381   14.2733 H   0  0  0  0  0  0  0  0  0  0  0  0
    3.8853  -19.2097   14.1391 H   0  0  0  0  0  0  0  0  0  0  0  0
  1  2  1  0
  2  3  1  0
  2  4  1  0
  4  5  1  0
  5  6  1  0
  6  7  1  0
  7  8  1  0
  7  9  1  0
  9 10  2  0
  9 11  1  0
 11 12  1  0
 12 13  2  0
 13 14  1  0
 14 15  2  0
 15 16  1  0
 16 17  2  0
 17 18  1  0
 18 19  1  0
  4 20  1  0
 20 21  2  0
 20 22  1  0
 22 23  1  0
 23 24  1  0
 24 25  1  0
 19 11  2  0
 25 22  1  0
 18 14  1  0
  1 26  1  0
  1 27  1  0
  1 28  1  0
  2 29  1  0
  3 30  1  0
  3 31  1  0
  3 32  1  0
  5 33  1  0
  5 34  1  0
  6 35  1  0
  6 36  1  0
  8 37  1  0
  8 38  1  0
  8 39  1  0
 12 40  1  0
 16 41  1  0
 17 42  1  0
 19 43  1  0
 22 44  1  0
 23 45  1  0
 23 46  1  0
 24 47  1  0
 24 48  1  0
 25 49  1  0
 25 50  1  0
M  END
>  <Energy>  (1015) 
179.41603190573409

>  <compound_id>  (1015) 
46953

>  <target_id>  (1015) 
1

>  <reference_id>  (1015) 
106

>  <inspiration_ids>  (1015) 
[106, 9]

>  <energy_score>  (1015) 
95.95617456551963

>  <distance_score>  (1015) 
15.037152301272735

>  <path>  (1015) 
/opt/xchem-fragalysis-2/maxwin/BulkDock/SCRATCH/511023/C46953-P106/C46953-P106.minimised.mol

>  <scratch_subdir>  (1015) 
/opt/xchem-fragalysis-2/maxwin/BulkDock/SCRATCH/511023/C46953-P106

>  <fragmenstein_runtime>  (1015) 
28.10942769050598

>  <fragmenstein_outcome>  (1015) 
too moved

>  <fragmenstein_mode>  (1015) 
expansion

>  <fragmenstein_error>  (1015) 


$$$$
C46953-P9
     RDKit          3D

 50 52  0  0  0  0  0  0  0  0999 V2000
    1.0903  -16.4969   18.7244 C   0  0  0  0  0  0  0  0  0  0  0  0
   -0.4202  -16.2702   18.3703 C   0  0  0  0  0  0  0  0  0  0  0  0
   -1.1324  -16.9812   19.6186 C   0  0  0  0  0  0  0  0  0  0  0  0
   -1.4863  -14.9916   18.0129 N   0  0  0  0  0  0  0  0  0  0  0  0
   -0.0038  -14.2258   17.3778 C   0  0  0  0  0  0  0  0  0  0  0  0
    1.7539  -14.2854   16.3554 C   0  0  0  0  0  0  0  0  0  0  0  0
    2.3097  -12.6983   15.1120 N   0  0  0  0  0  0  0  0  0  0  0  0
    1.5039  -12.3106   15.7827 C   0  0  0  0  0  0  0  0  0  0  0  0
    3.7989  -11.5011   15.1583 C   0  0  0  0  0  0  0  0  0  0  0  0
    4.5212  -11.7803   15.9674 O   0  0  0  0  0  0  0  0  0  0  0  0
    4.3897  -10.0623   14.0411 C   0  0  0  0  0  0  0  0  0  0  0  0
    5.8075  -10.4007   13.8298 C   0  0  0  0  0  0  0  0  0  0  0  0
    6.8993   -9.5787   13.8403 N   0  0  0  0  0  0  0  0  0  0  0  0
    6.8284   -7.9563   14.1212 C   0  0  0  0  0  0  0  0  0  0  0  0
    7.7682   -7.0898   14.7549 N   0  0  0  0  0  0  0  0  0  0  0  0
    7.2957   -6.1686   15.5750 C   0  0  0  0  0  0  0  0  0  0  0  0
    6.0501   -6.4263   15.5717 C   0  0  0  0  0  0  0  0  0  0  0  0
    5.6704   -7.4142   14.0771 N   0  0  0  0  0  0  0  0  0  0  0  0
    4.4341   -8.5038   13.8432 C   0  0  0  0  0  0  0  0  0  0  0  0
   -2.6587  -15.5109   17.3134 C   0  0  0  0  0  0  0  0  0  0  0  0
   -2.8739  -15.6408   16.1302 O   0  0  0  0  0  0  0  0  0  0  0  0
   -3.8184  -15.8753   18.3204 C   0  0  0  0  0  0  0  0  0  0  0  0
   -5.2233  -15.2607   18.0592 C   0  0  0  0  0  0  0  0  0  0  0  0
   -5.6438  -16.5649   17.3773 C   0  0  0  0  0  0  0  0  0  0  0  0
   -4.5080  -17.2701   18.1338 C   0  0  0  0  0  0  0  0  0  0  0  0
    1.3044  -17.5705   18.6172 H   0  0  0  0  0  0  0  0  0  0  0  0
    1.8194  -16.0172   18.0875 H   0  0  0  0  0  0  0  0  0  0  0  0
    1.3362  -16.2758   19.7710 H   0  0  0  0  0  0  0  0  0  0  0  0
   -0.6942  -17.1005   17.7263 H   0  0  0  0  0  0  0  0  0  0  0  0
   -2.0075  -17.5473   19.2834 H   0  0  0  0  0  0  0  0  0  0  0  0
   -1.4816  -16.2904   20.3845 H   0  0  0  0  0  0  0  0  0  0  0  0
   -0.4819  -17.7203   20.1007 H   0  0  0  0  0  0  0  0  0  0  0  0
   -0.6342  -14.1257   16.4677 H   0  0  0  0  0  0  0  0  0  0  0  0
   -0.2124  -13.2089   17.6503 H   0  0  0  0  0  0  0  0  0  0  0  0
    2.2948  -14.1572   17.3454 H   0  0  0  0  0  0  0  0  0  0  0  0
    2.1922  -15.2863   16.1732 H   0  0  0  0  0  0  0  0  0  0  0  0
    0.8981  -12.9688   16.3423 H   0  0  0  0  0  0  0  0  0  0  0  0
    2.3641  -11.4001   16.5348 H   0  0  0  0  0  0  0  0  0  0  0  0
    2.4674  -12.1438   16.4205 H   0  0  0  0  0  0  0  0  0  0  0  0
    5.9507  -11.4677   13.5932 H   0  0  0  0  0  0  0  0  0  0  0  0
    7.7151   -5.3318   16.0251 H   0  0  0  0  0  0  0  0  0  0  0  0
    5.1837   -6.1565   16.2171 H   0  0  0  0  0  0  0  0  0  0  0  0
    3.6873   -7.8795   14.2757 H   0  0  0  0  0  0  0  0  0  0  0  0
   -3.5241  -15.6930   19.3616 H   0  0  0  0  0  0  0  0  0  0  0  0
   -5.2462  -14.3719   17.4221 H   0  0  0  0  0  0  0  0  0  0  0  0
   -5.7803  -15.0441   18.9786 H   0  0  0  0  0  0  0  0  0  0  0  0
   -5.5040  -16.5253   16.2919 H   0  0  0  0  0  0  0  0  0  0  0  0
   -6.6564  -16.9069   17.6036 H   0  0  0  0  0  0  0  0  0  0  0  0
   -3.9443  -18.0027   17.5532 H   0  0  0  0  0  0  0  0  0  0  0  0
   -4.8215  -17.7310   19.0773 H   0  0  0  0  0  0  0  0  0  0  0  0
  1  2  1  0
  2  3  1  0
  2  4  1  0
  4  5  1  0
  5  6  1  0
  6  7  1  0
  7  8  1  0
  7  9  1  0
  9 10  2  0
  9 11  1  0
 11 12  1  0
 12 13  2  0
 13 14  1  0
 14 15  2  0
 15 16  1  0
 16 17  2  0
 17 18  1  0
 18 19  1  0
  4 20  1  0
 20 21  2  0
 20 22  1  0
 22 23  1  0
 23 24  1  0
 24 25  1  0
 19 11  2  0
 25 22  1  0
 18 14  1  0
  1 26  1  0
  1 27  1  0
  1 28  1  0
  2 29  1  0
  3 30  1  0
  3 31  1  0
  3 32  1  0
  5 33  1  0
  5 34  1  0
  6 35  1  0
  6 36  1  0
  8 37  1  0
  8 38  1  0
  8 39  1  0
 12 40  1  0
 16 41  1  0
 17 42  1  0
 19 43  1  0
 22 44  1  0
 23 45  1  0
 23 46  1  0
 24 47  1  0
 24 48  1  0
 25 49  1  0
 25 50  1  0
M  END
>  <Energy>  (1016) 
1149.7162380149266

>  <compound_id>  (1016) 
46953

>  <target_id>  (1016) 
1

>  <reference_id>  (1016) 
9

>  <inspiration_ids>  (1016) 
[106, 9]

>  <energy_score>  (1016) 
1066.2563806747055

>  <distance_score>  (1016) 
12.09894394297346

>  <path>  (1016) 
/opt/xchem-fragalysis-2/maxwin/BulkDock/SCRATCH/511023/C46953-P9/C46953-P9.minimised.mol

>  <scratch_subdir>  (1016) 
/opt/xchem-fragalysis-2/maxwin/BulkDock/SCRATCH/511023/C46953-P9

>  <fragmenstein_runtime>  (1016) 
30.178363800048828

>  <fragmenstein_outcome>  (1016) 
too moved

>  <fragmenstein_mode>  (1016) 
expansion

>  <fragmenstein_error>  (1016) 


$$$$
C46959-P40
     RDKit          3D

 29 30  0  0  0  0  0  0  0  0999 V2000
   -7.8873  -14.1173   28.0272 C   0  0  0  0  0  0  0  0  0  0  0  0
   -6.6533  -14.4479   28.7907 O   0  0  0  0  0  0  0  0  0  0  0  0
   -6.0939  -14.2727   30.0383 C   0  0  0  0  0  0  0  0  0  0  0  0
   -6.5872  -13.5604   30.8883 O   0  0  0  0  0  0  0  0  0  0  0  0
   -4.7866  -15.1823   30.3391 C   0  0  0  0  0  0  0  0  0  0  0  0
   -4.9587  -16.3350   29.6054 F   0  0  0  0  0  0  0  0  0  0  0  0
   -2.6447  -14.4575   29.5316 S   0  0  0  0  0  0  0  0  0  0  0  0
   -2.4284  -12.1528   29.7185 C   0  0  0  0  0  0  0  0  0  0  0  0
   -2.7211  -11.5412   28.6187 C   0  0  0  0  0  0  0  0  0  0  0  0
   -1.3296  -10.6707   28.4757 N   0  0  0  0  0  0  0  0  0  0  0  0
   -0.7323   -9.9668   29.4182 C   0  0  0  0  0  0  0  0  0  0  0  0
   -0.1146   -8.6551   29.4010 C   0  0  0  0  0  0  0  0  0  0  0  0
   -0.1767   -7.8514   30.5255 C   0  0  0  0  0  0  0  0  0  0  0  0
   -0.8650   -8.3428   31.5902 C   0  0  0  0  0  0  0  0  0  0  0  0
   -1.4073   -9.6549   31.4896 C   0  0  0  0  0  0  0  0  0  0  0  0
   -1.2445  -10.7785   30.3791 C   0  0  0  0  0  0  0  0  0  0  0  0
   -5.0197  -15.5717   31.5971 C   0  0  0  0  0  0  0  0  0  0  0  0
   -3.7392  -15.8731   31.8608 F   0  0  0  0  0  0  0  0  0  0  0  0
   -5.5877  -14.5636   32.1997 F   0  0  0  0  0  0  0  0  0  0  0  0
   -5.9219  -16.4430   31.9555 F   0  0  0  0  0  0  0  0  0  0  0  0
   -8.2700  -14.9893   27.4811 H   0  0  0  0  0  0  0  0  0  0  0  0
   -7.6341  -13.4001   27.2442 H   0  0  0  0  0  0  0  0  0  0  0  0
   -8.7105  -13.9036   28.6633 H   0  0  0  0  0  0  0  0  0  0  0  0
   -3.1145  -11.8523   27.6509 H   0  0  0  0  0  0  0  0  0  0  0  0
   -1.2155  -10.4744   27.5266 H   0  0  0  0  0  0  0  0  0  0  0  0
    0.2372   -8.1769   28.4982 H   0  0  0  0  0  0  0  0  0  0  0  0
    0.2138   -6.8394   30.5282 H   0  0  0  0  0  0  0  0  0  0  0  0
   -1.0755   -7.7328   32.4649 H   0  0  0  0  0  0  0  0  0  0  0  0
   -2.1627   -9.7266   32.2608 H   0  0  0  0  0  0  0  0  0  0  0  0
  1  2  1  0
  2  3  1  0
  3  4  2  0
  3  5  1  0
  5  6  1  0
  5  7  1  0
  7  8  1  0
  8  9  2  0
  9 10  1  0
 10 11  1  0
 11 12  2  0
 12 13  1  0
 13 14  2  0
 14 15  1  0
 15 16  2  0
  5 17  1  0
 17 18  1  0
 17 19  1  0
 17 20  1  0
 16  8  1  0
 16 11  1  0
  1 21  1  0
  1 22  1  0
  1 23  1  0
  9 24  1  0
 10 25  1  0
 12 26  1  0
 13 27  1  0
 14 28  1  0
 15 29  1  0
M  END
>  <Energy>  (1017) 
479.60737786440478

>  <compound_id>  (1017) 
46959

>  <target_id>  (1017) 
1

>  <reference_id>  (1017) 
40

>  <inspiration_ids>  (1017) 
[40, 123]

>  <energy_score>  (1017) 
392.27287785149576

>  <distance_score>  (1017) 
8.441171249034408

>  <path>  (1017) 
/opt/xchem-fragalysis-2/maxwin/BulkDock/SCRATCH/511023/C46959-P40/C46959-P40.minimised.mol

>  <scratch_subdir>  (1017) 
/opt/xchem-fragalysis-2/maxwin/BulkDock/SCRATCH/511023/C46959-P40

>  <fragmenstein_runtime>  (1017) 
11.620715379714966

>  <fragmenstein_outcome>  (1017) 
too moved

>  <fragmenstein_mode>  (1017) 
expansion

>  <fragmenstein_error>  (1017) 


$$$$
C46959-P123
     RDKit          3D

 29 30  0  0  0  0  0  0  0  0999 V2000
   -7.6915  -13.2727   38.3562 C   0  0  0  0  0  0  0  0  0  0  0  0
   -8.4151  -12.9957   37.1536 O   0  0  0  0  0  0  0  0  0  0  0  0
   -7.8489  -13.5126   36.0222 C   0  0  0  0  0  0  0  0  0  0  0  0
   -6.7961  -14.1417   36.0284 O   0  0  0  0  0  0  0  0  0  0  0  0
   -8.6768  -13.2519   34.7827 C   0  0  0  0  0  0  0  0  0  0  0  0
   -8.0279  -13.6409   33.6419 F   0  0  0  0  0  0  0  0  0  0  0  0
   -9.0972  -11.4111   34.6433 S   0  0  0  0  0  0  0  0  0  0  0  0
   -7.6425  -10.4849   34.1884 C   0  0  0  0  0  0  0  0  0  0  0  0
   -7.3785   -9.9777   32.9309 C   0  0  0  0  0  0  0  0  0  0  0  0
   -6.1781   -9.3047   32.9614 N   0  0  0  0  0  0  0  0  0  0  0  0
   -5.6530   -9.3412   34.2374 C   0  0  0  0  0  0  0  0  0  0  0  0
   -4.4030   -8.9218   34.7393 C   0  0  0  0  0  0  0  0  0  0  0  0
   -4.1602   -9.0055   36.1045 C   0  0  0  0  0  0  0  0  0  0  0  0
   -5.1255   -9.5381   36.9436 C   0  0  0  0  0  0  0  0  0  0  0  0
   -6.3299  -10.0445   36.4288 C   0  0  0  0  0  0  0  0  0  0  0  0
   -6.6026   -9.9815   35.0469 C   0  0  0  0  0  0  0  0  0  0  0  0
   -9.8817  -14.2137   34.8929 C   0  0  0  0  0  0  0  0  0  0  0  0
  -10.7083  -14.0799   33.8196 F   0  0  0  0  0  0  0  0  0  0  0  0
   -9.5247  -15.5294   34.9292 F   0  0  0  0  0  0  0  0  0  0  0  0
  -10.6438  -13.9821   35.9893 F   0  0  0  0  0  0  0  0  0  0  0  0
   -8.2174  -12.7910   39.1849 H   0  0  0  0  0  0  0  0  0  0  0  0
   -6.6794  -12.8601   38.3014 H   0  0  0  0  0  0  0  0  0  0  0  0
   -7.6626  -14.3508   38.5421 H   0  0  0  0  0  0  0  0  0  0  0  0
   -7.9361  -10.0369   32.0058 H   0  0  0  0  0  0  0  0  0  0  0  0
   -5.7561   -8.8458   32.1621 H   0  0  0  0  0  0  0  0  0  0  0  0
   -3.5948   -8.6065   34.0862 H   0  0  0  0  0  0  0  0  0  0  0  0
   -3.2040   -8.6802   36.5084 H   0  0  0  0  0  0  0  0  0  0  0  0
   -4.9313   -9.6093   38.0117 H   0  0  0  0  0  0  0  0  0  0  0  0
   -7.0479  -10.4994   37.1049 H   0  0  0  0  0  0  0  0  0  0  0  0
  1  2  1  0
  2  3  1  0
  3  4  2  0
  3  5  1  0
  5  6  1  0
  5  7  1  0
  7  8  1  0
  8  9  2  0
  9 10  1  0
 10 11  1  0
 11 12  2  0
 12 13  1  0
 13 14  2  0
 14 15  1  0
 15 16  2  0
  5 17  1  0
 17 18  1  0
 17 19  1  0
 17 20  1  0
 16  8  1  0
 16 11  1  0
  1 21  1  0
  1 22  1  0
  1 23  1  0
  9 24  1  0
 10 25  1  0
 12 26  1  0
 13 27  1  0
 14 28  1  0
 15 29  1  0
M  END
>  <Energy>  (1018) 
77.088574548560842

>  <compound_id>  (1018) 
46959

>  <target_id>  (1018) 
1

>  <reference_id>  (1018) 
123

>  <inspiration_ids>  (1018) 
[40, 123]

>  <energy_score>  (1018) 
-10.245925464350705

>  <distance_score>  (1018) 
11.348416381455664

>  <path>  (1018) 
/opt/xchem-fragalysis-2/maxwin/BulkDock/SCRATCH/511023/C46959-P123/C46959-P123.minimised.mol

>  <scratch_subdir>  (1018) 
/opt/xchem-fragalysis-2/maxwin/BulkDock/SCRATCH/511023/C46959-P123

>  <fragmenstein_runtime>  (1018) 
16.15942907333374

>  <fragmenstein_outcome>  (1018) 
too moved

>  <fragmenstein_mode>  (1018) 
expansion

>  <fragmenstein_error>  (1018) 


$$$$
C46960-P40
     RDKit          3D

 34 35  0  0  0  0  0  0  0  0999 V2000
  -11.0020  -20.9186   30.9928 C   0  0  0  0  0  0  0  0  0  0  0  0
  -10.4339  -19.7305   32.3401 O   0  0  0  0  0  0  0  0  0  0  0  0
   -9.5830  -18.9805   33.4504 C   0  0  0  0  0  0  0  0  0  0  0  0
  -10.2066  -18.2467   34.2442 O   0  0  0  0  0  0  0  0  0  0  0  0
   -7.8317  -18.9540   33.6107 C   0  0  0  0  0  0  0  0  0  0  0  0
   -6.9780  -20.3105   33.6303 C   0  0  0  0  0  0  0  0  0  0  0  0
   -8.1387  -19.1258   35.3006 C   0  0  0  0  0  0  0  0  0  0  0  0
   -6.9151  -17.7031   32.3782 C   0  0  0  0  0  0  0  0  0  0  0  0
   -5.8088  -16.0723   31.8598 C   0  0  0  0  0  0  0  0  0  0  0  0
   -6.1868  -14.8059   31.3496 C   0  0  0  0  0  0  0  0  0  0  0  0
   -5.8809  -14.9541   30.0298 N   0  0  0  0  0  0  0  0  0  0  0  0
   -5.0156  -16.1541   29.7297 C   0  0  0  0  0  0  0  0  0  0  0  0
   -3.9282  -16.3039   28.4226 C   0  0  0  0  0  0  0  0  0  0  0  0
   -2.6576  -15.4542   28.3520 C   0  0  0  0  0  0  0  0  0  0  0  0
   -2.4837  -14.9107   29.6182 C   0  0  0  0  0  0  0  0  0  0  0  0
   -3.2887  -15.1756   30.9671 C   0  0  0  0  0  0  0  0  0  0  0  0
   -4.5416  -15.8388   31.0003 C   0  0  0  0  0  0  0  0  0  0  0  0
  -10.6730  -20.7218   29.9813 H   0  0  0  0  0  0  0  0  0  0  0  0
  -10.9917  -21.9416   31.3488 H   0  0  0  0  0  0  0  0  0  0  0  0
  -12.0939  -20.8351   30.9680 H   0  0  0  0  0  0  0  0  0  0  0  0
   -6.4850  -20.4760   32.6856 H   0  0  0  0  0  0  0  0  0  0  0  0
   -7.5983  -21.1608   33.9217 H   0  0  0  0  0  0  0  0  0  0  0  0
   -6.1745  -20.3467   34.3532 H   0  0  0  0  0  0  0  0  0  0  0  0
   -7.2549  -19.4021   35.8937 H   0  0  0  0  0  0  0  0  0  0  0  0
   -8.8387  -19.9516   35.4786 H   0  0  0  0  0  0  0  0  0  0  0  0
   -8.5787  -18.2251   35.7551 H   0  0  0  0  0  0  0  0  0  0  0  0
   -6.0431  -18.1250   32.8046 H   0  0  0  0  0  0  0  0  0  0  0  0
   -7.6421  -17.0653   32.7962 H   0  0  0  0  0  0  0  0  0  0  0  0
   -6.9877  -14.1203   31.5023 H   0  0  0  0  0  0  0  0  0  0  0  0
   -6.3158  -14.3978   29.3062 H   0  0  0  0  0  0  0  0  0  0  0  0
   -3.8445  -17.2569   27.8963 H   0  0  0  0  0  0  0  0  0  0  0  0
   -1.8493  -15.6735   27.6614 H   0  0  0  0  0  0  0  0  0  0  0  0
   -1.4869  -15.2097   29.8322 H   0  0  0  0  0  0  0  0  0  0  0  0
   -2.7653  -14.9498   31.8842 H   0  0  0  0  0  0  0  0  0  0  0  0
  1  2  1  0
  2  3  1  0
  3  4  2  0
  3  5  1  0
  5  6  1  0
  5  7  1  0
  5  8  1  0
  8  9  1  0
  9 10  2  0
 10 11  1  0
 11 12  1  0
 12 13  2  0
 13 14  1  0
 14 15  2  0
 15 16  1  0
 16 17  2  0
 17  9  1  0
 17 12  1  0
  1 18  1  0
  1 19  1  0
  1 20  1  0
  6 21  1  0
  6 22  1  0
  6 23  1  0
  7 24  1  0
  7 25  1  0
  7 26  1  0
  8 27  1  0
  8 28  1  0
 10 29  1  0
 11 30  1  0
 13 31  1  0
 14 32  1  0
 15 33  1  0
 16 34  1  0
M  END
>  <Energy>  (1019) 
602.61996790331227

>  <compound_id>  (1019) 
46960

>  <target_id>  (1019) 
1

>  <reference_id>  (1019) 
40

>  <inspiration_ids>  (1019) 
[40, 123]

>  <energy_score>  (1019) 
559.1678669891797

>  <distance_score>  (1019) 
9.35748760941507

>  <path>  (1019) 
/opt/xchem-fragalysis-2/maxwin/BulkDock/SCRATCH/511023/C46960-P40/C46960-P40.minimised.mol

>  <scratch_subdir>  (1019) 
/opt/xchem-fragalysis-2/maxwin/BulkDock/SCRATCH/511023/C46960-P40

>  <fragmenstein_runtime>  (1019) 
11.035892486572266

>  <fragmenstein_outcome>  (1019) 
too moved

>  <fragmenstein_mode>  (1019) 
expansion

>  <fragmenstein_error>  (1019) 


$$$$
C46960-P123
     RDKit          3D

 34 35  0  0  0  0  0  0  0  0999 V2000
  -10.3576  -11.1833   33.9828 C   0  0  0  0  0  0  0  0  0  0  0  0
   -9.4931  -11.3309   35.1101 O   0  0  0  0  0  0  0  0  0  0  0  0
   -8.5796  -12.3396   34.9981 C   0  0  0  0  0  0  0  0  0  0  0  0
   -8.4747  -13.0694   34.0234 O   0  0  0  0  0  0  0  0  0  0  0  0
   -7.7627  -12.4830   36.2752 C   0  0  0  0  0  0  0  0  0  0  0  0
   -6.7364  -13.6435   36.1749 C   0  0  0  0  0  0  0  0  0  0  0  0
   -8.7952  -12.9877   37.3261 C   0  0  0  0  0  0  0  0  0  0  0  0
   -7.1245  -11.1032   36.7002 C   0  0  0  0  0  0  0  0  0  0  0  0
   -6.2631  -10.2777   35.7143 C   0  0  0  0  0  0  0  0  0  0  0  0
   -6.5960   -9.8553   34.4354 C   0  0  0  0  0  0  0  0  0  0  0  0
   -5.5249   -9.2091   33.8719 N   0  0  0  0  0  0  0  0  0  0  0  0
   -4.5077   -9.0847   34.7938 C   0  0  0  0  0  0  0  0  0  0  0  0
   -3.2060   -8.5610   34.6609 C   0  0  0  0  0  0  0  0  0  0  0  0
   -2.4375   -8.4212   35.8058 C   0  0  0  0  0  0  0  0  0  0  0  0
   -2.9016   -8.9101   37.0192 C   0  0  0  0  0  0  0  0  0  0  0  0
   -4.1351   -9.5730   37.1068 C   0  0  0  0  0  0  0  0  0  0  0  0
   -4.9725   -9.6654   35.9769 C   0  0  0  0  0  0  0  0  0  0  0  0
  -11.1263  -10.4497   34.2411 H   0  0  0  0  0  0  0  0  0  0  0  0
   -9.7943  -10.8054   33.1255 H   0  0  0  0  0  0  0  0  0  0  0  0
  -10.8528  -12.1291   33.7423 H   0  0  0  0  0  0  0  0  0  0  0  0
   -5.7815  -13.3041   35.7749 H   0  0  0  0  0  0  0  0  0  0  0  0
   -7.0984  -14.4753   35.5621 H   0  0  0  0  0  0  0  0  0  0  0  0
   -6.5005  -14.0451   37.1680 H   0  0  0  0  0  0  0  0  0  0  0  0
   -9.2680  -13.9245   37.0077 H   0  0  0  0  0  0  0  0  0  0  0  0
   -8.3159  -13.1573   38.2970 H   0  0  0  0  0  0  0  0  0  0  0  0
   -9.5949  -12.2558   37.4880 H   0  0  0  0  0  0  0  0  0  0  0  0
   -6.5219  -11.2840   37.6001 H   0  0  0  0  0  0  0  0  0  0  0  0
   -7.9317  -10.4283   37.0189 H   0  0  0  0  0  0  0  0  0  0  0  0
   -7.4829  -10.0153   33.8375 H   0  0  0  0  0  0  0  0  0  0  0  0
   -5.4829   -8.9077   32.9058 H   0  0  0  0  0  0  0  0  0  0  0  0
   -2.7993   -8.2402   33.7064 H   0  0  0  0  0  0  0  0  0  0  0  0
   -1.4616   -7.9460   35.7375 H   0  0  0  0  0  0  0  0  0  0  0  0
   -2.2854   -8.8131   37.9101 H   0  0  0  0  0  0  0  0  0  0  0  0
   -4.4494   -9.9944   38.0574 H   0  0  0  0  0  0  0  0  0  0  0  0
  1  2  1  0
  2  3  1  0
  3  4  2  0
  3  5  1  0
  5  6  1  0
  5  7  1  0
  5  8  1  0
  8  9  1  0
  9 10  2  0
 10 11  1  0
 11 12  1  0
 12 13  2  0
 13 14  1  0
 14 15  2  0
 15 16  1  0
 16 17  2  0
 17  9  1  0
 17 12  1  0
  1 18  1  0
  1 19  1  0
  1 20  1  0
  6 21  1  0
  6 22  1  0
  6 23  1  0
  7 24  1  0
  7 25  1  0
  7 26  1  0
  8 27  1  0
  8 28  1  0
 10 29  1  0
 11 30  1  0
 13 31  1  0
 14 32  1  0
 15 33  1  0
 16 34  1  0
M  END
>  <Energy>  (1020) 
24.879532418550479

>  <compound_id>  (1020) 
46960

>  <target_id>  (1020) 
1

>  <reference_id>  (1020) 
123

>  <inspiration_ids>  (1020) 
[40, 123]

>  <energy_score>  (1020) 
-18.572568495576206

>  <distance_score>  (1020) 
11.038294528831047

>  <path>  (1020) 
/opt/xchem-fragalysis-2/maxwin/BulkDock/SCRATCH/511023/C46960-P123/C46960-P123.minimised.mol

>  <scratch_subdir>  (1020) 
/opt/xchem-fragalysis-2/maxwin/BulkDock/SCRATCH/511023/C46960-P123

>  <fragmenstein_runtime>  (1020) 
18.638853311538696

>  <fragmenstein_outcome>  (1020) 
too moved

>  <fragmenstein_mode>  (1020) 
expansion

>  <fragmenstein_error>  (1020) 


$$$$
C46962-P40
     RDKit          3D

 32 33  0  0  0  0  0  0  0  0999 V2000
   -8.9069  -23.4626   27.9140 C   0  0  0  0  0  0  0  0  0  0  0  0
   -7.3996  -23.2431   28.8347 C   0  0  0  0  0  0  0  0  0  0  0  0
   -7.9095  -24.6788   30.2999 C   0  0  0  0  0  0  0  0  0  0  0  0
   -6.4098  -22.2237   28.0160 C   0  0  0  0  0  0  0  0  0  0  0  0
   -7.3898  -21.5557   27.3713 F   0  0  0  0  0  0  0  0  0  0  0  0
   -4.6804  -21.3797   27.5138 C   0  0  0  0  0  0  0  0  0  0  0  0
   -3.5284  -19.4917   28.0460 S   0  0  0  0  0  0  0  0  0  0  0  0
   -2.5027  -20.0197   28.9473 O   0  0  0  0  0  0  0  0  0  0  0  0
   -4.5157  -18.5503   28.5679 O   0  0  0  0  0  0  0  0  0  0  0  0
   -2.2050  -17.8031   27.2775 C   0  0  0  0  0  0  0  0  0  0  0  0
   -1.3039  -16.8339   27.9121 C   0  0  0  0  0  0  0  0  0  0  0  0
   -2.0111  -15.4214   28.0810 C   0  0  0  0  0  0  0  0  0  0  0  0
   -2.2704  -14.1789   28.9786 C   0  0  0  0  0  0  0  0  0  0  0  0
   -2.6006  -12.4813   28.6666 C   0  0  0  0  0  0  0  0  0  0  0  0
   -2.7294  -12.3493   27.1076 C   0  0  0  0  0  0  0  0  0  0  0  0
   -2.3234  -13.6447   26.2821 C   0  0  0  0  0  0  0  0  0  0  0  0
   -2.0901  -15.1258   26.7995 C   0  0  0  0  0  0  0  0  0  0  0  0
   -2.3143  -16.6880   26.2684 N   0  0  0  0  0  0  0  0  0  0  0  0
   -9.6363  -22.6808   28.1385 H   0  0  0  0  0  0  0  0  0  0  0  0
   -9.4564  -24.3571   28.2382 H   0  0  0  0  0  0  0  0  0  0  0  0
   -8.6599  -23.6711   26.8843 H   0  0  0  0  0  0  0  0  0  0  0  0
   -8.2882  -25.6411   29.9147 H   0  0  0  0  0  0  0  0  0  0  0  0
   -8.6958  -24.5848   31.0867 H   0  0  0  0  0  0  0  0  0  0  0  0
   -6.9233  -25.0911   30.7188 H   0  0  0  0  0  0  0  0  0  0  0  0
   -3.9565  -22.1256   27.8732 H   0  0  0  0  0  0  0  0  0  0  0  0
   -4.6477  -21.3624   26.4201 H   0  0  0  0  0  0  0  0  0  0  0  0
   -0.4320  -17.0929   28.5043 H   0  0  0  0  0  0  0  0  0  0  0  0
   -2.5363  -14.5484   29.9625 H   0  0  0  0  0  0  0  0  0  0  0  0
   -2.7897  -11.7368   29.3897 H   0  0  0  0  0  0  0  0  0  0  0  0
   -2.6025  -11.4584   26.5710 H   0  0  0  0  0  0  0  0  0  0  0  0
   -2.1406  -13.4666   25.2353 H   0  0  0  0  0  0  0  0  0  0  0  0
   -2.8454  -16.7514   25.4298 H   0  0  0  0  0  0  0  0  0  0  0  0
  1  2  1  0
  2  3  1  0
  2  4  2  3
  4  5  1  0
  4  6  1  0
  6  7  1  0
  7  8  2  0
  7  9  2  0
  7 10  1  0
 10 11  2  0
 11 12  1  0
 12 13  2  0
 13 14  1  0
 14 15  2  0
 15 16  1  0
 16 17  2  0
 17 18  1  0
 18 10  1  0
 17 12  1  0
  1 19  1  0
  1 20  1  0
  1 21  1  0
  3 22  1  0
  3 23  1  0
  3 24  1  0
  6 25  1  0
  6 26  1  0
 11 27  1  0
 13 28  1  0
 14 29  1  0
 15 30  1  0
 16 31  1  0
 18 32  1  0
M  END
>  <Energy>  (1021) 
736.45804331226543

>  <compound_id>  (1021) 
46962

>  <target_id>  (1021) 
1

>  <reference_id>  (1021) 
40

>  <inspiration_ids>  (1021) 
[40, 123]

>  <energy_score>  (1021) 
667.960562183956

>  <distance_score>  (1021) 
8.180839378032054

>  <path>  (1021) 
/opt/xchem-fragalysis-2/maxwin/BulkDock/SCRATCH/511023/C46962-P40/C46962-P40.minimised.mol

>  <scratch_subdir>  (1021) 
/opt/xchem-fragalysis-2/maxwin/BulkDock/SCRATCH/511023/C46962-P40

>  <fragmenstein_runtime>  (1021) 
12.817652940750122

>  <fragmenstein_outcome>  (1021) 
too moved

>  <fragmenstein_mode>  (1021) 
expansion

>  <fragmenstein_error>  (1021) 


$$$$
C46962-P123
     RDKit          3D

 32 33  0  0  0  0  0  0  0  0999 V2000
   -4.0820  -18.9791   33.9186 C   0  0  0  0  0  0  0  0  0  0  0  0
   -5.1983  -18.0477   33.5178 C   0  0  0  0  0  0  0  0  0  0  0  0
   -6.5218  -18.3956   34.1634 C   0  0  0  0  0  0  0  0  0  0  0  0
   -4.9719  -17.0305   32.6416 C   0  0  0  0  0  0  0  0  0  0  0  0
   -3.7250  -16.9859   32.1127 F   0  0  0  0  0  0  0  0  0  0  0  0
   -6.1312  -16.1008   32.1306 C   0  0  0  0  0  0  0  0  0  0  0  0
   -6.0120  -14.5631   30.4104 S   0  0  0  0  0  0  0  0  0  0  0  0
   -6.8543  -14.0545   29.3467 O   0  0  0  0  0  0  0  0  0  0  0  0
   -5.3093  -15.7732   29.8944 O   0  0  0  0  0  0  0  0  0  0  0  0
   -5.1497  -12.4575   30.7096 C   0  0  0  0  0  0  0  0  0  0  0  0
   -3.9081  -11.7449   30.5108 C   0  0  0  0  0  0  0  0  0  0  0  0
   -3.6943  -10.3536   31.7053 C   0  0  0  0  0  0  0  0  0  0  0  0
   -2.6633   -9.4812   32.1587 C   0  0  0  0  0  0  0  0  0  0  0  0
   -2.8870   -8.8414   33.3833 C   0  0  0  0  0  0  0  0  0  0  0  0
   -4.1587   -8.8871   34.0121 C   0  0  0  0  0  0  0  0  0  0  0  0
   -5.3254   -9.3583   33.3466 C   0  0  0  0  0  0  0  0  0  0  0  0
   -5.0807  -10.1782   32.2286 C   0  0  0  0  0  0  0  0  0  0  0  0
   -5.8999  -11.2445   31.5768 N   0  0  0  0  0  0  0  0  0  0  0  0
   -4.3092  -20.0009   33.5964 H   0  0  0  0  0  0  0  0  0  0  0  0
   -3.9627  -18.9767   35.0072 H   0  0  0  0  0  0  0  0  0  0  0  0
   -3.1166  -18.7024   33.4840 H   0  0  0  0  0  0  0  0  0  0  0  0
   -6.4946  -18.1099   35.2206 H   0  0  0  0  0  0  0  0  0  0  0  0
   -6.7024  -19.4743   34.1205 H   0  0  0  0  0  0  0  0  0  0  0  0
   -7.3765  -17.8910   33.7081 H   0  0  0  0  0  0  0  0  0  0  0  0
   -6.8796  -15.9007   32.9213 H   0  0  0  0  0  0  0  0  0  0  0  0
   -6.4063  -17.0368   31.6240 H   0  0  0  0  0  0  0  0  0  0  0  0
   -3.0557  -12.0396   29.9116 H   0  0  0  0  0  0  0  0  0  0  0  0
   -1.6893   -9.4724   31.7045 H   0  0  0  0  0  0  0  0  0  0  0  0
   -2.0588   -8.3311   33.8759 H   0  0  0  0  0  0  0  0  0  0  0  0
   -4.2610   -8.4451   35.0039 H   0  0  0  0  0  0  0  0  0  0  0  0
   -6.3004   -9.3189   33.8182 H   0  0  0  0  0  0  0  0  0  0  0  0
   -6.8075  -11.4424   31.9584 H   0  0  0  0  0  0  0  0  0  0  0  0
  1  2  1  0
  2  3  1  0
  2  4  2  3
  4  5  1  0
  4  6  1  0
  6  7  1  0
  7  8  2  0
  7  9  2  0
  7 10  1  0
 10 11  2  0
 11 12  1  0
 12 13  2  0
 13 14  1  0
 14 15  2  0
 15 16  1  0
 16 17  2  0
 17 18  1  0
 18 10  1  0
 17 12  1  0
  1 19  1  0
  1 20  1  0
  1 21  1  0
  3 22  1  0
  3 23  1  0
  3 24  1  0
  6 25  1  0
  6 26  1  0
 11 27  1  0
 13 28  1  0
 14 29  1  0
 15 30  1  0
 16 31  1  0
 18 32  1  0
M  END
>  <Energy>  (1022) 
391.61104355365762

>  <compound_id>  (1022) 
46962

>  <target_id>  (1022) 
1

>  <reference_id>  (1022) 
123

>  <inspiration_ids>  (1022) 
[40, 123]

>  <energy_score>  (1022) 
323.1135624253565

>  <distance_score>  (1022) 
8.405374009903213

>  <path>  (1022) 
/opt/xchem-fragalysis-2/maxwin/BulkDock/SCRATCH/511023/C46962-P123/C46962-P123.minimised.mol

>  <scratch_subdir>  (1022) 
/opt/xchem-fragalysis-2/maxwin/BulkDock/SCRATCH/511023/C46962-P123

>  <fragmenstein_runtime>  (1022) 
8.755928993225098

>  <fragmenstein_outcome>  (1022) 
too moved

>  <fragmenstein_mode>  (1022) 
expansion

>  <fragmenstein_error>  (1022) 


$$$$
C46963-P40
     RDKit          3D

 36 37  0  0  0  0  0  0  0  0999 V2000
   -3.5452  -22.5879   28.4318 C   0  0  0  0  0  0  0  0  0  0  0  0
   -3.3085  -21.4534   27.5436 C   0  0  0  0  0  0  0  0  0  0  0  0
   -2.9176  -20.5037   26.9176 C   0  0  0  0  0  0  0  0  0  0  0  0
   -2.1165  -19.3973   26.3315 C   0  0  0  0  0  0  0  0  0  0  0  0
   -2.8533  -18.0658   26.1572 C   0  0  0  0  0  0  0  0  0  0  0  0
   -1.9699  -16.7463   26.0516 C   0  0  0  0  0  0  0  0  0  0  0  0
   -1.8208  -15.9247   27.4078 C   0  0  0  0  0  0  0  0  0  0  0  0
   -1.9897  -14.3645   27.5001 O   0  0  0  0  0  0  0  0  0  0  0  0
   -2.2454  -13.6104   29.0056 C   0  0  0  0  0  0  0  0  0  0  0  0
   -2.6315  -14.4584   29.8223 O   0  0  0  0  0  0  0  0  0  0  0  0
   -2.0913  -11.5983   29.4004 C   0  0  0  0  0  0  0  0  0  0  0  0
   -1.2456  -10.4362   28.7381 C   0  0  0  0  0  0  0  0  0  0  0  0
   -0.4366   -8.9536   28.9651 C   0  0  0  0  0  0  0  0  0  0  0  0
   -0.5237   -8.3872   30.1794 C   0  0  0  0  0  0  0  0  0  0  0  0
   -0.2560   -7.1758   30.7239 N   0  0  0  0  0  0  0  0  0  0  0  0
   -0.6883   -7.2114   32.0157 C   0  0  0  0  0  0  0  0  0  0  0  0
   -1.1868   -8.4819   32.2538 C   0  0  0  0  0  0  0  0  0  0  0  0
   -1.0562   -9.2641   31.0768 C   0  0  0  0  0  0  0  0  0  0  0  0
   -1.2919  -10.7342   30.4830 C   0  0  0  0  0  0  0  0  0  0  0  0
   -2.9051  -22.5257   29.3174 H   0  0  0  0  0  0  0  0  0  0  0  0
   -3.3303  -23.5348   27.9293 H   0  0  0  0  0  0  0  0  0  0  0  0
   -4.5727  -22.5804   28.7657 H   0  0  0  0  0  0  0  0  0  0  0  0
   -1.7246  -19.7175   25.3581 H   0  0  0  0  0  0  0  0  0  0  0  0
   -1.2362  -19.2365   26.9662 H   0  0  0  0  0  0  0  0  0  0  0  0
   -3.3677  -18.1621   25.1948 H   0  0  0  0  0  0  0  0  0  0  0  0
   -3.6074  -17.9473   26.9387 H   0  0  0  0  0  0  0  0  0  0  0  0
   -0.9668  -17.0186   25.7010 H   0  0  0  0  0  0  0  0  0  0  0  0
   -2.3824  -16.0950   25.2733 H   0  0  0  0  0  0  0  0  0  0  0  0
   -2.6198  -16.2909   28.0050 H   0  0  0  0  0  0  0  0  0  0  0  0
   -0.8681  -16.2457   27.8223 H   0  0  0  0  0  0  0  0  0  0  0  0
   -1.3726  -10.7405   27.7088 H   0  0  0  0  0  0  0  0  0  0  0  0
   -0.1108   -8.2721   28.1985 H   0  0  0  0  0  0  0  0  0  0  0  0
    0.1306   -6.3655   30.2562 H   0  0  0  0  0  0  0  0  0  0  0  0
   -0.6352   -6.3409   32.6580 H   0  0  0  0  0  0  0  0  0  0  0  0
   -1.6623   -8.7342   33.1835 H   0  0  0  0  0  0  0  0  0  0  0  0
   -0.7875  -11.3145   31.1958 H   0  0  0  0  0  0  0  0  0  0  0  0
  1  2  1  0
  2  3  3  0
  3  4  1  0
  4  5  1  0
  5  6  1  0
  6  7  1  0
  7  8  1  0
  8  9  1  0
  9 10  2  0
  9 11  1  0
 11 12  2  0
 12 13  1  0
 13 14  2  0
 14 15  1  0
 15 16  1  0
 16 17  2  0
 17 18  1  0
 18 19  2  0
 19 11  1  0
 18 14  1  0
  1 20  1  0
  1 21  1  0
  1 22  1  0
  4 23  1  0
  4 24  1  0
  5 25  1  0
  5 26  1  0
  6 27  1  0
  6 28  1  0
  7 29  1  0
  7 30  1  0
 12 31  1  0
 13 32  1  0
 15 33  1  0
 16 34  1  0
 17 35  1  0
 19 36  1  0
M  END
>  <Energy>  (1023) 
402.63558232475702

>  <compound_id>  (1023) 
46963

>  <target_id>  (1023) 
1

>  <reference_id>  (1023) 
40

>  <inspiration_ids>  (1023) 
[40, 123]

>  <energy_score>  (1023) 
351.398667961613

>  <distance_score>  (1023) 
8.051955736443942

>  <path>  (1023) 
/opt/xchem-fragalysis-2/maxwin/BulkDock/SCRATCH/511023/C46963-P40/C46963-P40.minimised.mol

>  <scratch_subdir>  (1023) 
/opt/xchem-fragalysis-2/maxwin/BulkDock/SCRATCH/511023/C46963-P40

>  <fragmenstein_runtime>  (1023) 
13.051482200622559

>  <fragmenstein_outcome>  (1023) 
too moved

>  <fragmenstein_mode>  (1023) 
expansion

>  <fragmenstein_error>  (1023) 


$$$$
C46963-P123
     RDKit          3D

 36 37  0  0  0  0  0  0  0  0999 V2000
  -12.6723  -23.1931   30.1500 C   0  0  0  0  0  0  0  0  0  0  0  0
  -12.1078  -21.9899   29.5491 C   0  0  0  0  0  0  0  0  0  0  0  0
  -11.4126  -21.0877   29.1674 C   0  0  0  0  0  0  0  0  0  0  0  0
   -9.9744  -20.4119   28.9840 C   0  0  0  0  0  0  0  0  0  0  0  0
   -8.7479  -18.7074   28.2965 C   0  0  0  0  0  0  0  0  0  0  0  0
   -7.8940  -16.7538   28.3112 C   0  0  0  0  0  0  0  0  0  0  0  0
   -6.3934  -15.3420   28.8610 C   0  0  0  0  0  0  0  0  0  0  0  0
   -5.7937  -13.7504   29.8608 O   0  0  0  0  0  0  0  0  0  0  0  0
   -4.9122  -12.3009   30.4751 C   0  0  0  0  0  0  0  0  0  0  0  0
   -5.6619  -11.6618   31.2376 O   0  0  0  0  0  0  0  0  0  0  0  0
   -3.1911  -11.4510   30.4565 C   0  0  0  0  0  0  0  0  0  0  0  0
   -3.1241  -10.1986   31.5960 C   0  0  0  0  0  0  0  0  0  0  0  0
   -2.2135   -9.1243   32.0178 C   0  0  0  0  0  0  0  0  0  0  0  0
   -1.2469   -8.8580   31.0628 C   0  0  0  0  0  0  0  0  0  0  0  0
   -0.6522   -7.6698   30.6942 N   0  0  0  0  0  0  0  0  0  0  0  0
   -0.4970   -7.7101   29.3222 C   0  0  0  0  0  0  0  0  0  0  0  0
   -0.4120   -9.0554   28.9598 C   0  0  0  0  0  0  0  0  0  0  0  0
   -0.9845   -9.8319   30.0241 C   0  0  0  0  0  0  0  0  0  0  0  0
   -1.9050  -11.1336   29.9767 C   0  0  0  0  0  0  0  0  0  0  0  0
  -13.0942  -22.9508   31.1276 H   0  0  0  0  0  0  0  0  0  0  0  0
  -11.9000  -23.9545   30.2970 H   0  0  0  0  0  0  0  0  0  0  0  0
  -13.4409  -23.6169   29.5003 H   0  0  0  0  0  0  0  0  0  0  0  0
   -9.8109  -21.1942   28.1673 H   0  0  0  0  0  0  0  0  0  0  0  0
   -9.9523  -20.7011   30.0570 H   0  0  0  0  0  0  0  0  0  0  0  0
   -7.9819  -19.3564   28.0129 H   0  0  0  0  0  0  0  0  0  0  0  0
   -8.0855  -18.5871   29.1188 H   0  0  0  0  0  0  0  0  0  0  0  0
   -6.9561  -17.2664   28.2563 H   0  0  0  0  0  0  0  0  0  0  0  0
   -8.3170  -16.2762   27.4063 H   0  0  0  0  0  0  0  0  0  0  0  0
   -5.8930  -15.8956   29.6672 H   0  0  0  0  0  0  0  0  0  0  0  0
   -7.0948  -14.5374   28.5402 H   0  0  0  0  0  0  0  0  0  0  0  0
   -4.0836  -10.0189   32.1274 H   0  0  0  0  0  0  0  0  0  0  0  0
   -2.5177   -8.4043   32.7697 H   0  0  0  0  0  0  0  0  0  0  0  0
   -0.6396   -6.8272   31.2545 H   0  0  0  0  0  0  0  0  0  0  0  0
   -0.2774   -6.8070   28.7691 H   0  0  0  0  0  0  0  0  0  0  0  0
   -0.1934   -9.4126   27.9691 H   0  0  0  0  0  0  0  0  0  0  0  0
   -1.2293  -11.6316   30.6959 H   0  0  0  0  0  0  0  0  0  0  0  0
  1  2  1  0
  2  3  3  0
  3  4  1  0
  4  5  1  0
  5  6  1  0
  6  7  1  0
  7  8  1  0
  8  9  1  0
  9 10  2  0
  9 11  1  0
 11 12  2  0
 12 13  1  0
 13 14  2  0
 14 15  1  0
 15 16  1  0
 16 17  2  0
 17 18  1  0
 18 19  2  0
 19 11  1  0
 18 14  1  0
  1 20  1  0
  1 21  1  0
  1 22  1  0
  4 23  1  0
  4 24  1  0
  5 25  1  0
  5 26  1  0
  6 27  1  0
  6 28  1  0
  7 29  1  0
  7 30  1  0
 12 31  1  0
 13 32  1  0
 15 33  1  0
 16 34  1  0
 17 35  1  0
 19 36  1  0
M  END
>  <Energy>  (1024) 
1014.6589715432658

>  <compound_id>  (1024) 
46963

>  <target_id>  (1024) 
1

>  <reference_id>  (1024) 
123

>  <inspiration_ids>  (1024) 
[40, 123]

>  <energy_score>  (1024) 
963.4220571801445

>  <distance_score>  (1024) 
5.6677348476882745

>  <path>  (1024) 
/opt/xchem-fragalysis-2/maxwin/BulkDock/SCRATCH/511023/C46963-P123/C46963-P123.minimised.mol

>  <scratch_subdir>  (1024) 
/opt/xchem-fragalysis-2/maxwin/BulkDock/SCRATCH/511023/C46963-P123

>  <fragmenstein_runtime>  (1024) 
13.069586038589478

>  <fragmenstein_outcome>  (1024) 
too moved

>  <fragmenstein_mode>  (1024) 
expansion

>  <fragmenstein_error>  (1024) 


$$$$
C46964-P40
     RDKit          3D

 37 38  0  0  0  0  0  0  0  0999 V2000
  -11.0452  -21.7488   28.3857 C   0  0  0  0  0  0  0  0  0  0  0  0
  -10.5903  -20.2583   29.4426 S   0  0  0  0  0  0  0  0  0  0  0  0
   -9.1238  -18.3762   28.2881 C   0  0  0  0  0  0  0  0  0  0  0  0
   -8.1098  -16.4920   28.1446 C   0  0  0  0  0  0  0  0  0  0  0  0
   -7.5297  -14.4744   28.6097 C   0  0  0  0  0  0  0  0  0  0  0  0
   -6.2357  -13.5749   30.4629 S   0  0  0  0  0  0  0  0  0  0  0  0
   -5.1379  -14.5181   30.6400 O   0  0  0  0  0  0  0  0  0  0  0  0
   -7.1039  -14.0409   31.5118 O   0  0  0  0  0  0  0  0  0  0  0  0
   -5.8679  -11.2509   31.2765 N   0  0  0  0  0  0  0  0  0  0  0  0
   -6.5143  -11.7177   32.5872 C   0  0  0  0  0  0  0  0  0  0  0  0
   -4.9018   -9.3425   31.7262 C   0  0  0  0  0  0  0  0  0  0  0  0
   -4.7681   -8.9940   33.2969 C   0  0  0  0  0  0  0  0  0  0  0  0
   -3.4725   -8.7892   34.2248 C   0  0  0  0  0  0  0  0  0  0  0  0
   -2.2952   -8.3356   33.5805 C   0  0  0  0  0  0  0  0  0  0  0  0
   -1.1030   -7.8068   34.0126 N   0  0  0  0  0  0  0  0  0  0  0  0
   -0.3622   -7.3749   32.9370 C   0  0  0  0  0  0  0  0  0  0  0  0
   -1.0609   -7.6869   31.7936 C   0  0  0  0  0  0  0  0  0  0  0  0
   -2.2670   -8.3322   32.2002 C   0  0  0  0  0  0  0  0  0  0  0  0
   -3.5054   -8.7704   31.5020 C   0  0  0  0  0  0  0  0  0  0  0  0
  -11.8208  -22.2464   28.9666 H   0  0  0  0  0  0  0  0  0  0  0  0
  -10.2343  -22.4689   28.3007 H   0  0  0  0  0  0  0  0  0  0  0  0
  -11.4878  -21.5445   27.4095 H   0  0  0  0  0  0  0  0  0  0  0  0
   -9.5724  -18.1089   27.3619 H   0  0  0  0  0  0  0  0  0  0  0  0
   -8.3317  -18.9849   28.2854 H   0  0  0  0  0  0  0  0  0  0  0  0
   -8.4607  -16.2524   27.1255 H   0  0  0  0  0  0  0  0  0  0  0  0
   -7.1444  -16.9407   28.1799 H   0  0  0  0  0  0  0  0  0  0  0  0
   -8.5187  -14.0851   28.8109 H   0  0  0  0  0  0  0  0  0  0  0  0
   -7.2275  -13.8717   27.7476 H   0  0  0  0  0  0  0  0  0  0  0  0
   -6.1253  -12.6879   32.7984 H   0  0  0  0  0  0  0  0  0  0  0  0
   -7.5991  -11.7284   32.5834 H   0  0  0  0  0  0  0  0  0  0  0  0
   -6.2146  -11.0882   33.3854 H   0  0  0  0  0  0  0  0  0  0  0  0
   -5.3528   -9.6673   33.9192 H   0  0  0  0  0  0  0  0  0  0  0  0
   -3.5636   -8.9527   35.2908 H   0  0  0  0  0  0  0  0  0  0  0  0
   -0.8390   -7.7314   34.9850 H   0  0  0  0  0  0  0  0  0  0  0  0
    0.5859   -6.8787   33.0899 H   0  0  0  0  0  0  0  0  0  0  0  0
   -0.7516   -7.4561   30.7847 H   0  0  0  0  0  0  0  0  0  0  0  0
   -3.4565   -8.0574   30.7102 H   0  0  0  0  0  0  0  0  0  0  0  0
  1  2  1  0
  2  3  1  0
  3  4  1  0
  4  5  1  0
  5  6  1  0
  6  7  2  0
  6  8  2  0
  6  9  1  0
  9 10  1  0
  9 11  1  0
 11 12  2  0
 12 13  1  0
 13 14  2  0
 14 15  1  0
 15 16  1  0
 16 17  2  0
 17 18  1  0
 18 19  2  0
 19 11  1  0
 18 14  1  0
  1 20  1  0
  1 21  1  0
  1 22  1  0
  3 23  1  0
  3 24  1  0
  4 25  1  0
  4 26  1  0
  5 27  1  0
  5 28  1  0
 10 29  1  0
 10 30  1  0
 10 31  1  0
 12 32  1  0
 13 33  1  0
 15 34  1  0
 16 35  1  0
 17 36  1  0
 19 37  1  0
M  END
>  <Energy>  (1025) 
1176.2055493407574

>  <compound_id>  (1025) 
46964

>  <target_id>  (1025) 
1

>  <reference_id>  (1025) 
40

>  <inspiration_ids>  (1025) 
[40, 123]

>  <energy_score>  (1025) 
1167.6306030720116

>  <distance_score>  (1025) 
6.3501297086649355

>  <path>  (1025) 
/opt/xchem-fragalysis-2/maxwin/BulkDock/SCRATCH/511023/C46964-P40/C46964-P40.minimised.mol

>  <scratch_subdir>  (1025) 
/opt/xchem-fragalysis-2/maxwin/BulkDock/SCRATCH/511023/C46964-P40

>  <fragmenstein_runtime>  (1025) 
15.064857721328735

>  <fragmenstein_outcome>  (1025) 
too moved

>  <fragmenstein_mode>  (1025) 
expansion

>  <fragmenstein_error>  (1025) 


$$$$
C46964-P123
     RDKit          3D

 37 38  0  0  0  0  0  0  0  0999 V2000
  -10.1959  -20.5524   29.2188 C   0  0  0  0  0  0  0  0  0  0  0  0
   -8.7138  -18.7480   28.3056 S   0  0  0  0  0  0  0  0  0  0  0  0
   -7.5412  -16.6841   28.3979 C   0  0  0  0  0  0  0  0  0  0  0  0
   -5.9806  -15.8167   29.4169 C   0  0  0  0  0  0  0  0  0  0  0  0
   -5.8977  -13.9638   30.0741 C   0  0  0  0  0  0  0  0  0  0  0  0
   -4.3874  -12.2166   30.2946 S   0  0  0  0  0  0  0  0  0  0  0  0
   -5.4823  -11.4848   30.9202 O   0  0  0  0  0  0  0  0  0  0  0  0
   -3.6009  -12.1051   29.1053 O   0  0  0  0  0  0  0  0  0  0  0  0
   -3.2607  -10.6369   31.3690 N   0  0  0  0  0  0  0  0  0  0  0  0
   -4.1667   -9.5111   32.2925 C   0  0  0  0  0  0  0  0  0  0  0  0
   -1.8253   -9.9577   31.2081 C   0  0  0  0  0  0  0  0  0  0  0  0
   -1.6105   -8.9087   32.1829 C   0  0  0  0  0  0  0  0  0  0  0  0
   -1.0501   -7.6510   31.9152 C   0  0  0  0  0  0  0  0  0  0  0  0
   -0.6986   -7.4247   30.5974 C   0  0  0  0  0  0  0  0  0  0  0  0
   -0.3314   -6.2543   29.9711 N   0  0  0  0  0  0  0  0  0  0  0  0
   -0.3250   -6.4438   28.6154 C   0  0  0  0  0  0  0  0  0  0  0  0
   -0.3478   -7.8041   28.4002 C   0  0  0  0  0  0  0  0  0  0  0  0
   -0.6152   -8.4613   29.6580 C   0  0  0  0  0  0  0  0  0  0  0  0
   -1.0008   -9.8309   30.0315 C   0  0  0  0  0  0  0  0  0  0  0  0
  -10.0824  -21.4222   28.5237 H   0  0  0  0  0  0  0  0  0  0  0  0
  -11.3202  -20.5208   29.2120 H   0  0  0  0  0  0  0  0  0  0  0  0
  -10.1234  -20.8315   30.2828 H   0  0  0  0  0  0  0  0  0  0  0  0
   -6.7654  -17.3394   28.1914 H   0  0  0  0  0  0  0  0  0  0  0  0
   -8.0477  -16.0571   27.6634 H   0  0  0  0  0  0  0  0  0  0  0  0
   -5.0388  -16.3360   29.2040 H   0  0  0  0  0  0  0  0  0  0  0  0
   -5.8533  -16.2896   30.4095 H   0  0  0  0  0  0  0  0  0  0  0  0
   -6.5908  -13.9008   30.9037 H   0  0  0  0  0  0  0  0  0  0  0  0
   -6.5195  -13.5782   29.2684 H   0  0  0  0  0  0  0  0  0  0  0  0
   -4.3334   -8.6054   31.7286 H   0  0  0  0  0  0  0  0  0  0  0  0
   -5.0606   -9.9584   32.6727 H   0  0  0  0  0  0  0  0  0  0  0  0
   -3.6735   -9.1982   33.2121 H   0  0  0  0  0  0  0  0  0  0  0  0
   -1.8646   -9.0955   33.2235 H   0  0  0  0  0  0  0  0  0  0  0  0
   -0.9726   -6.8879   32.6819 H   0  0  0  0  0  0  0  0  0  0  0  0
   -0.2386   -5.3621   30.4368 H   0  0  0  0  0  0  0  0  0  0  0  0
   -0.2102   -5.6074   27.9392 H   0  0  0  0  0  0  0  0  0  0  0  0
   -0.2399   -8.2775   27.4373 H   0  0  0  0  0  0  0  0  0  0  0  0
   -1.0525  -10.5443   29.2329 H   0  0  0  0  0  0  0  0  0  0  0  0
  1  2  1  0
  2  3  1  0
  3  4  1  0
  4  5  1  0
  5  6  1  0
  6  7  2  0
  6  8  2  0
  6  9  1  0
  9 10  1  0
  9 11  1  0
 11 12  2  0
 12 13  1  0
 13 14  2  0
 14 15  1  0
 15 16  1  0
 16 17  2  0
 17 18  1  0
 18 19  2  0
 19 11  1  0
 18 14  1  0
  1 20  1  0
  1 21  1  0
  1 22  1  0
  3 23  1  0
  3 24  1  0
  4 25  1  0
  4 26  1  0
  5 27  1  0
  5 28  1  0
 10 29  1  0
 10 30  1  0
 10 31  1  0
 12 32  1  0
 13 33  1  0
 15 34  1  0
 16 35  1  0
 17 36  1  0
 19 37  1  0
M  END
>  <Energy>  (1026) 
752.93404565425396

>  <compound_id>  (1026) 
46964

>  <target_id>  (1026) 
1

>  <reference_id>  (1026) 
123

>  <inspiration_ids>  (1026) 
[40, 123]

>  <energy_score>  (1026) 
744.359099385523

>  <distance_score>  (1026) 
5.215511245210846

>  <path>  (1026) 
/opt/xchem-fragalysis-2/maxwin/BulkDock/SCRATCH/511023/C46964-P123/C46964-P123.minimised.mol

>  <scratch_subdir>  (1026) 
/opt/xchem-fragalysis-2/maxwin/BulkDock/SCRATCH/511023/C46964-P123

>  <fragmenstein_runtime>  (1026) 
7.973596572875977

>  <fragmenstein_outcome>  (1026) 
too moved

>  <fragmenstein_mode>  (1026) 
expansion

>  <fragmenstein_error>  (1026) 


$$$$
C46966-P40
     RDKit          3D

 29 30  0  0  0  0  0  0  0  0999 V2000
  -11.5061  -15.6204   34.2168 C   0  0  0  0  0  0  0  0  0  0  0  0
  -10.0914  -15.3042   33.5308 C   0  0  0  0  0  0  0  0  0  0  0  0
   -9.4251  -17.1082   34.2607 Cl  0  0  0  0  0  0  0  0  0  0  0  0
   -9.1250  -14.2992   33.0267 C   0  0  0  0  0  0  0  0  0  0  0  0
   -8.1823  -12.6040   33.0156 C   0  0  0  0  0  0  0  0  0  0  0  0
   -7.7045  -11.6038   34.0626 O   0  0  0  0  0  0  0  0  0  0  0  0
   -6.1446  -11.0759   33.6524 C   0  0  0  0  0  0  0  0  0  0  0  0
   -5.8530  -11.4825   32.5414 O   0  0  0  0  0  0  0  0  0  0  0  0
   -5.0708  -10.1383   34.8870 C   0  0  0  0  0  0  0  0  0  0  0  0
   -5.4039  -10.0858   36.2509 C   0  0  0  0  0  0  0  0  0  0  0  0
   -4.4983   -9.8256   37.3010 C   0  0  0  0  0  0  0  0  0  0  0  0
   -3.1438   -9.6417   37.0084 C   0  0  0  0  0  0  0  0  0  0  0  0
   -2.9076   -9.0332   35.7693 C   0  0  0  0  0  0  0  0  0  0  0  0
   -1.8741   -8.1177   35.3219 C   0  0  0  0  0  0  0  0  0  0  0  0
   -1.9963   -8.0006   33.9652 C   0  0  0  0  0  0  0  0  0  0  0  0
   -3.0276   -8.8582   33.6211 N   0  0  0  0  0  0  0  0  0  0  0  0
   -3.8036   -9.3057   34.7236 C   0  0  0  0  0  0  0  0  0  0  0  0
  -11.7111  -16.6655   34.5049 H   0  0  0  0  0  0  0  0  0  0  0  0
  -12.3437  -15.3745   33.5463 H   0  0  0  0  0  0  0  0  0  0  0  0
  -11.6537  -15.2428   35.1890 H   0  0  0  0  0  0  0  0  0  0  0  0
   -8.4784  -14.8013   32.3098 H   0  0  0  0  0  0  0  0  0  0  0  0
   -7.2427  -12.9145   32.5581 H   0  0  0  0  0  0  0  0  0  0  0  0
   -8.7449  -11.8723   32.4502 H   0  0  0  0  0  0  0  0  0  0  0  0
   -6.3301  -10.5558   36.4733 H   0  0  0  0  0  0  0  0  0  0  0  0
   -4.8107  -10.0031   38.3281 H   0  0  0  0  0  0  0  0  0  0  0  0
   -2.3990   -9.5993   37.7965 H   0  0  0  0  0  0  0  0  0  0  0  0
   -1.1070   -7.6763   35.9417 H   0  0  0  0  0  0  0  0  0  0  0  0
   -1.4177   -7.4802   33.2174 H   0  0  0  0  0  0  0  0  0  0  0  0
   -3.3037   -9.0634   32.6689 H   0  0  0  0  0  0  0  0  0  0  0  0
  1  2  1  0
  2  3  1  0
  2  4  2  3
  4  5  1  0
  5  6  1  0
  6  7  1  0
  7  8  2  0
  7  9  1  0
  9 10  2  0
 10 11  1  0
 11 12  2  0
 12 13  1  0
 13 14  1  0
 14 15  2  0
 15 16  1  0
 16 17  1  0
 17  9  1  0
 17 13  2  0
  1 18  1  0
  1 19  1  0
  1 20  1  0
  4 21  1  0
  5 22  1  0
  5 23  1  0
 10 24  1  0
 11 25  1  0
 12 26  1  0
 14 27  1  0
 15 28  1  0
 16 29  1  0
M  END
>  <Energy>  (1027) 
311.58502513647289

>  <compound_id>  (1027) 
46966

>  <target_id>  (1027) 
1

>  <reference_id>  (1027) 
40

>  <inspiration_ids>  (1027) 
[40, 123]

>  <energy_score>  (1027) 
264.8767571044365

>  <distance_score>  (1027) 
8.517371282419758

>  <path>  (1027) 
/opt/xchem-fragalysis-2/maxwin/BulkDock/SCRATCH/511023/C46966-P40/C46966-P40.minimised.mol

>  <scratch_subdir>  (1027) 
/opt/xchem-fragalysis-2/maxwin/BulkDock/SCRATCH/511023/C46966-P40

>  <fragmenstein_runtime>  (1027) 
12.243862867355347

>  <fragmenstein_outcome>  (1027) 
too moved

>  <fragmenstein_mode>  (1027) 
expansion

>  <fragmenstein_error>  (1027) 


$$$$
C46966-P123
     RDKit          3D

 29 30  0  0  0  0  0  0  0  0999 V2000
   -5.8554  -16.3232   32.2476 C   0  0  0  0  0  0  0  0  0  0  0  0
   -5.9864  -15.1405   30.7548 C   0  0  0  0  0  0  0  0  0  0  0  0
   -5.5146  -16.3964   29.6225 Cl  0  0  0  0  0  0  0  0  0  0  0  0
   -5.7501  -13.8063   30.2576 C   0  0  0  0  0  0  0  0  0  0  0  0
   -4.8731  -12.1909   30.5425 C   0  0  0  0  0  0  0  0  0  0  0  0
   -3.3054  -11.3203   30.7098 O   0  0  0  0  0  0  0  0  0  0  0  0
   -3.0827  -10.0045   31.6523 C   0  0  0  0  0  0  0  0  0  0  0  0
   -4.0575   -9.5729   32.2987 O   0  0  0  0  0  0  0  0  0  0  0  0
   -1.8512   -9.0388   31.8289 C   0  0  0  0  0  0  0  0  0  0  0  0
   -0.9913   -8.5100   30.8073 C   0  0  0  0  0  0  0  0  0  0  0  0
   -0.4812   -7.2075   30.7988 C   0  0  0  0  0  0  0  0  0  0  0  0
   -0.5547   -6.4276   31.9278 C   0  0  0  0  0  0  0  0  0  0  0  0
   -1.1266   -6.9997   33.0654 C   0  0  0  0  0  0  0  0  0  0  0  0
   -1.2074   -6.5333   34.3937 C   0  0  0  0  0  0  0  0  0  0  0  0
   -1.9109   -7.4660   35.1007 C   0  0  0  0  0  0  0  0  0  0  0  0
   -2.3105   -8.4526   34.2490 N   0  0  0  0  0  0  0  0  0  0  0  0
   -1.7794   -8.2429   32.9947 C   0  0  0  0  0  0  0  0  0  0  0  0
   -6.2390  -17.3250   32.0110 H   0  0  0  0  0  0  0  0  0  0  0  0
   -6.4888  -16.0543   33.1091 H   0  0  0  0  0  0  0  0  0  0  0  0
   -4.8457  -16.5340   32.5652 H   0  0  0  0  0  0  0  0  0  0  0  0
   -6.3918  -13.7030   29.3860 H   0  0  0  0  0  0  0  0  0  0  0  0
   -4.9069  -12.0165   29.4843 H   0  0  0  0  0  0  0  0  0  0  0  0
   -5.5136  -11.5503   31.1464 H   0  0  0  0  0  0  0  0  0  0  0  0
   -0.7565   -9.1151   29.9236 H   0  0  0  0  0  0  0  0  0  0  0  0
    0.0260   -6.8165   29.9222 H   0  0  0  0  0  0  0  0  0  0  0  0
   -0.0899   -5.4479   31.9666 H   0  0  0  0  0  0  0  0  0  0  0  0
   -0.8058   -5.6105   34.7913 H   0  0  0  0  0  0  0  0  0  0  0  0
   -2.1827   -7.5042   36.1447 H   0  0  0  0  0  0  0  0  0  0  0  0
   -2.8681   -9.2493   34.5329 H   0  0  0  0  0  0  0  0  0  0  0  0
  1  2  1  0
  2  3  1  0
  2  4  2  3
  4  5  1  0
  5  6  1  0
  6  7  1  0
  7  8  2  0
  7  9  1  0
  9 10  2  0
 10 11  1  0
 11 12  2  0
 12 13  1  0
 13 14  1  0
 14 15  2  0
 15 16  1  0
 16 17  1  0
 17  9  1  0
 17 13  2  0
  1 18  1  0
  1 19  1  0
  1 20  1  0
  4 21  1  0
  5 22  1  0
  5 23  1  0
 10 24  1  0
 11 25  1  0
 12 26  1  0
 14 27  1  0
 15 28  1  0
 16 29  1  0
M  END
>  <Energy>  (1028) 
288.51380210051934

>  <compound_id>  (1028) 
46966

>  <target_id>  (1028) 
1

>  <reference_id>  (1028) 
123

>  <inspiration_ids>  (1028) 
[40, 123]

>  <energy_score>  (1028) 
241.8055340684864

>  <distance_score>  (1028) 
7.0090751218143215

>  <path>  (1028) 
/opt/xchem-fragalysis-2/maxwin/BulkDock/SCRATCH/511023/C46966-P123/C46966-P123.minimised.mol

>  <scratch_subdir>  (1028) 
/opt/xchem-fragalysis-2/maxwin/BulkDock/SCRATCH/511023/C46966-P123

>  <fragmenstein_runtime>  (1028) 
11.62148904800415

>  <fragmenstein_outcome>  (1028) 
too moved

>  <fragmenstein_mode>  (1028) 
expansion

>  <fragmenstein_error>  (1028) 


$$$$
C46967-P40
     RDKit          3D

 42 43  0  0  0  0  0  0  0  0999 V2000
   -0.9428  -18.1090   24.4896 C   0  0  0  0  0  0  0  0  0  0  0  0
   -0.4943  -17.2718   25.7143 C   0  0  0  0  0  0  0  0  0  0  0  0
    0.4261  -18.1290   26.5914 C   0  0  0  0  0  0  0  0  0  0  0  0
   -1.6936  -16.6040   26.4560 C   0  0  0  0  0  0  0  0  0  0  0  0
   -2.7765  -17.7520   26.5713 C   0  0  0  0  0  0  0  0  0  0  0  0
   -1.3125  -15.9315   27.8937 C   0  0  0  0  0  0  0  0  0  0  0  0
   -2.1179  -14.1284   28.8442 S   0  0  0  0  0  0  0  0  0  0  0  0
   -2.3404  -14.0797   27.3249 O   0  0  0  0  0  0  0  0  0  0  0  0
   -2.9069  -14.7838   29.8660 O   0  0  0  0  0  0  0  0  0  0  0  0
   -2.0596  -11.9013   29.6163 N   0  0  0  0  0  0  0  0  0  0  0  0
   -0.6497  -11.4167   30.7463 C   0  0  0  0  0  0  0  0  0  0  0  0
   -1.2945  -10.1558   29.8694 C   0  0  0  0  0  0  0  0  0  0  0  0
   -1.5606   -9.1630   31.2068 C   0  0  0  0  0  0  0  0  0  0  0  0
   -1.1005   -7.8606   31.4560 C   0  0  0  0  0  0  0  0  0  0  0  0
   -0.2855   -7.3484   30.4710 C   0  0  0  0  0  0  0  0  0  0  0  0
    0.2826   -6.0934   30.4036 N   0  0  0  0  0  0  0  0  0  0  0  0
    1.1428   -6.0334   29.3497 C   0  0  0  0  0  0  0  0  0  0  0  0
    1.0901   -7.2525   28.7168 C   0  0  0  0  0  0  0  0  0  0  0  0
    0.1209   -8.0876   29.3585 C   0  0  0  0  0  0  0  0  0  0  0  0
   -0.4037   -9.4193   29.1454 C   0  0  0  0  0  0  0  0  0  0  0  0
   -1.3854  -19.0694   24.7715 H   0  0  0  0  0  0  0  0  0  0  0  0
   -1.6512  -17.5501   23.8695 H   0  0  0  0  0  0  0  0  0  0  0  0
   -0.0735  -18.3350   23.8608 H   0  0  0  0  0  0  0  0  0  0  0  0
    0.1245  -16.4503   25.3271 H   0  0  0  0  0  0  0  0  0  0  0  0
    1.1683  -18.6510   25.9767 H   0  0  0  0  0  0  0  0  0  0  0  0
   -0.1266  -18.8845   27.1567 H   0  0  0  0  0  0  0  0  0  0  0  0
    0.9898  -17.5137   27.2984 H   0  0  0  0  0  0  0  0  0  0  0  0
   -2.0488  -15.8318   25.7653 H   0  0  0  0  0  0  0  0  0  0  0  0
   -3.2212  -17.9322   25.5908 H   0  0  0  0  0  0  0  0  0  0  0  0
   -3.5828  -17.5365   27.2673 H   0  0  0  0  0  0  0  0  0  0  0  0
   -2.3255  -18.6992   26.8714 H   0  0  0  0  0  0  0  0  0  0  0  0
   -0.4330  -16.3774   28.3665 H   0  0  0  0  0  0  0  0  0  0  0  0
   -2.1886  -16.4161   28.2197 H   0  0  0  0  0  0  0  0  0  0  0  0
   -0.6164  -10.6732   31.5142 H   0  0  0  0  0  0  0  0  0  0  0  0
    0.2724  -11.8091   30.3538 H   0  0  0  0  0  0  0  0  0  0  0  0
   -1.1916  -11.8677   31.5151 H   0  0  0  0  0  0  0  0  0  0  0  0
   -2.2718   -9.4809   31.9677 H   0  0  0  0  0  0  0  0  0  0  0  0
   -1.3992   -7.3084   32.3411 H   0  0  0  0  0  0  0  0  0  0  0  0
    0.1260   -5.3531   31.0775 H   0  0  0  0  0  0  0  0  0  0  0  0
    1.7288   -5.1433   29.1554 H   0  0  0  0  0  0  0  0  0  0  0  0
    1.7298   -7.4891   27.8818 H   0  0  0  0  0  0  0  0  0  0  0  0
   -0.1855  -10.0908   28.3958 H   0  0  0  0  0  0  0  0  0  0  0  0
  1  2  1  0
  2  3  1  0
  2  4  1  0
  4  5  1  0
  4  6  1  0
  6  7  1  0
  7  8  2  0
  7  9  2  0
  7 10  1  0
 10 11  1  0
 10 12  1  0
 12 13  2  0
 13 14  1  0
 14 15  2  0
 15 16  1  0
 16 17  1  0
 17 18  2  0
 18 19  1  0
 19 20  2  0
 20 12  1  0
 19 15  1  0
  1 21  1  0
  1 22  1  0
  1 23  1  0
  2 24  1  0
  3 25  1  0
  3 26  1  0
  3 27  1  0
  4 28  1  0
  5 29  1  0
  5 30  1  0
  5 31  1  0
  6 32  1  0
  6 33  1  0
 11 34  1  0
 11 35  1  0
 11 36  1  0
 13 37  1  0
 14 38  1  0
 16 39  1  0
 17 40  1  0
 18 41  1  0
 20 42  1  0
M  END
>  <Energy>  (1029) 
726.90066969764405

>  <compound_id>  (1029) 
46967

>  <target_id>  (1029) 
1

>  <reference_id>  (1029) 
40

>  <inspiration_ids>  (1029) 
[40, 123]

>  <energy_score>  (1029) 
660.0118180681995

>  <distance_score>  (1029) 
8.062590725705492

>  <path>  (1029) 
/opt/xchem-fragalysis-2/maxwin/BulkDock/SCRATCH/511023/C46967-P40/C46967-P40.minimised.mol

>  <scratch_subdir>  (1029) 
/opt/xchem-fragalysis-2/maxwin/BulkDock/SCRATCH/511023/C46967-P40

>  <fragmenstein_runtime>  (1029) 
29.653835773468018

>  <fragmenstein_outcome>  (1029) 
too moved

>  <fragmenstein_mode>  (1029) 
expansion

>  <fragmenstein_error>  (1029) 


$$$$
C46967-P123
     RDKit          3D

 42 43  0  0  0  0  0  0  0  0999 V2000
   -8.3693  -22.5636   27.8972 C   0  0  0  0  0  0  0  0  0  0  0  0
   -9.2736  -20.9918   27.6648 C   0  0  0  0  0  0  0  0  0  0  0  0
  -10.9388  -21.8680   27.5109 C   0  0  0  0  0  0  0  0  0  0  0  0
   -8.7122  -19.2678   28.4113 C   0  0  0  0  0  0  0  0  0  0  0  0
  -10.1928  -20.4576   29.4453 C   0  0  0  0  0  0  0  0  0  0  0  0
   -7.9589  -17.2834   28.3130 C   0  0  0  0  0  0  0  0  0  0  0  0
   -6.3116  -15.6003   28.9203 S   0  0  0  0  0  0  0  0  0  0  0  0
   -5.5975  -16.4582   29.8524 O   0  0  0  0  0  0  0  0  0  0  0  0
   -7.0822  -14.3728   28.5776 O   0  0  0  0  0  0  0  0  0  0  0  0
   -5.2061  -14.2336   30.1436 N   0  0  0  0  0  0  0  0  0  0  0  0
   -3.3772  -15.1832   29.8866 C   0  0  0  0  0  0  0  0  0  0  0  0
   -4.7634  -12.4335   30.2280 C   0  0  0  0  0  0  0  0  0  0  0  0
   -5.2573  -11.4492   31.2789 C   0  0  0  0  0  0  0  0  0  0  0  0
   -4.4642  -10.0957   32.1192 C   0  0  0  0  0  0  0  0  0  0  0  0
   -3.0792   -9.8645   31.7781 C   0  0  0  0  0  0  0  0  0  0  0  0
   -2.2030   -8.8663   32.1275 N   0  0  0  0  0  0  0  0  0  0  0  0
   -1.2147   -8.8115   31.1779 C   0  0  0  0  0  0  0  0  0  0  0  0
   -1.2407  -10.0375   30.4333 C   0  0  0  0  0  0  0  0  0  0  0  0
   -2.4715  -10.7359   30.7592 C   0  0  0  0  0  0  0  0  0  0  0  0
   -3.3849  -11.9373   30.0223 C   0  0  0  0  0  0  0  0  0  0  0  0
   -7.3239  -22.3887   28.1223 H   0  0  0  0  0  0  0  0  0  0  0  0
   -8.1409  -23.0133   26.9277 H   0  0  0  0  0  0  0  0  0  0  0  0
   -8.9890  -23.3053   28.3941 H   0  0  0  0  0  0  0  0  0  0  0  0
   -8.2711  -21.0841   27.1602 H   0  0  0  0  0  0  0  0  0  0  0  0
  -11.6111  -21.9428   28.3698 H   0  0  0  0  0  0  0  0  0  0  0  0
  -10.7766  -22.9412   27.3075 H   0  0  0  0  0  0  0  0  0  0  0  0
  -11.5130  -21.4758   26.6769 H   0  0  0  0  0  0  0  0  0  0  0  0
   -9.3147  -18.6377   27.7693 H   0  0  0  0  0  0  0  0  0  0  0  0
  -10.1219  -21.5361   29.3765 H   0  0  0  0  0  0  0  0  0  0  0  0
  -11.2881  -20.4258   29.2624 H   0  0  0  0  0  0  0  0  0  0  0  0
  -10.2466  -20.5193   30.5647 H   0  0  0  0  0  0  0  0  0  0  0  0
   -6.9801  -17.5007   28.0881 H   0  0  0  0  0  0  0  0  0  0  0  0
   -8.4055  -16.7901   27.4310 H   0  0  0  0  0  0  0  0  0  0  0  0
   -2.8783  -15.7181   30.7136 H   0  0  0  0  0  0  0  0  0  0  0  0
   -3.4588  -16.0235   29.1684 H   0  0  0  0  0  0  0  0  0  0  0  0
   -2.6918  -14.5033   29.4057 H   0  0  0  0  0  0  0  0  0  0  0  0
   -6.2468  -11.6014   31.7122 H   0  0  0  0  0  0  0  0  0  0  0  0
   -4.9735   -9.4992   32.8722 H   0  0  0  0  0  0  0  0  0  0  0  0
   -2.3940   -8.1419   32.8070 H   0  0  0  0  0  0  0  0  0  0  0  0
   -0.5138   -7.9820   31.1424 H   0  0  0  0  0  0  0  0  0  0  0  0
   -0.5482  -10.2685   29.6318 H   0  0  0  0  0  0  0  0  0  0  0  0
   -2.8935  -12.3570   29.1942 H   0  0  0  0  0  0  0  0  0  0  0  0
  1  2  1  0
  2  3  1  0
  2  4  1  0
  4  5  1  0
  4  6  1  0
  6  7  1  0
  7  8  2  0
  7  9  2  0
  7 10  1  0
 10 11  1  0
 10 12  1  0
 12 13  2  0
 13 14  1  0
 14 15  2  0
 15 16  1  0
 16 17  1  0
 17 18  2  0
 18 19  1  0
 19 20  2  0
 20 12  1  0
 19 15  1  0
  1 21  1  0
  1 22  1  0
  1 23  1  0
  2 24  1  0
  3 25  1  0
  3 26  1  0
  3 27  1  0
  4 28  1  0
  5 29  1  0
  5 30  1  0
  5 31  1  0
  6 32  1  0
  6 33  1  0
 11 34  1  0
 11 35  1  0
 11 36  1  0
 13 37  1  0
 14 38  1  0
 16 39  1  0
 17 40  1  0
 18 41  1  0
 20 42  1  0
M  END
>  <Energy>  (1030) 
1154.7715504576604

>  <compound_id>  (1030) 
46967

>  <target_id>  (1030) 
1

>  <reference_id>  (1030) 
123

>  <inspiration_ids>  (1030) 
[40, 123]

>  <energy_score>  (1030) 
1087.8826988282462

>  <distance_score>  (1030) 
6.883595733984359

>  <path>  (1030) 
/opt/xchem-fragalysis-2/maxwin/BulkDock/SCRATCH/511023/C46967-P123/C46967-P123.minimised.mol

>  <scratch_subdir>  (1030) 
/opt/xchem-fragalysis-2/maxwin/BulkDock/SCRATCH/511023/C46967-P123

>  <fragmenstein_runtime>  (1030) 
13.383127689361572

>  <fragmenstein_outcome>  (1030) 
too moved

>  <fragmenstein_mode>  (1030) 
expansion

>  <fragmenstein_error>  (1030) 


$$$$
C46973-P40
     RDKit          3D

 28 29  0  0  0  0  0  0  0  0999 V2000
   -6.4044  -14.4720   31.1223 C   0  0  0  0  0  0  0  0  0  0  0  0
   -5.4874  -15.7963   31.0633 C   0  0  0  0  0  0  0  0  0  0  0  0
   -3.6479  -15.0554   30.5744 C   0  0  0  0  0  0  0  0  0  0  0  0
   -2.7341  -13.6713   29.4395 N   0  0  0  0  0  0  0  0  0  0  0  0
   -3.7664  -12.2887   29.1322 C   0  0  0  0  0  0  0  0  0  0  0  0
   -2.7872  -11.6008   28.5900 C   0  0  0  0  0  0  0  0  0  0  0  0
   -2.7592  -10.9975   29.8629 C   0  0  0  0  0  0  0  0  0  0  0  0
   -2.1375   -9.7455   31.1557 C   0  0  0  0  0  0  0  0  0  0  0  0
   -1.0418   -8.9784   31.0034 C   0  0  0  0  0  0  0  0  0  0  0  0
   -0.5362   -9.5985   29.9690 C   0  0  0  0  0  0  0  0  0  0  0  0
   -0.7553  -11.0278   30.2135 C   0  0  0  0  0  0  0  0  0  0  0  0
   -2.0718  -11.9983   29.6101 C   0  0  0  0  0  0  0  0  0  0  0  0
   -6.5996  -17.5575   32.2859 S   0  0  0  0  0  0  0  0  0  0  0  0
   -7.7908  -17.3918   33.0513 O   0  0  0  0  0  0  0  0  0  0  0  0
   -5.3353  -17.7847   32.8722 O   0  0  0  0  0  0  0  0  0  0  0  0
   -6.5202  -19.8312   33.0887 Cl  0  0  0  0  0  0  0  0  0  0  0  0
   -7.4359  -14.5957   31.4313 H   0  0  0  0  0  0  0  0  0  0  0  0
   -6.3934  -14.0380   30.1222 H   0  0  0  0  0  0  0  0  0  0  0  0
   -6.1559  -13.6599   31.7792 H   0  0  0  0  0  0  0  0  0  0  0  0
   -5.6295  -16.2421   30.0618 H   0  0  0  0  0  0  0  0  0  0  0  0
   -4.4444  -14.3733   30.4440 H   0  0  0  0  0  0  0  0  0  0  0  0
   -3.0497  -14.9019   31.4811 H   0  0  0  0  0  0  0  0  0  0  0  0
   -4.8382  -12.3141   29.0660 H   0  0  0  0  0  0  0  0  0  0  0  0
   -2.5345  -11.5115   27.5268 H   0  0  0  0  0  0  0  0  0  0  0  0
   -2.9272   -9.2527   31.7484 H   0  0  0  0  0  0  0  0  0  0  0  0
   -0.8116   -8.0371   31.4563 H   0  0  0  0  0  0  0  0  0  0  0  0
    0.3458   -9.1758   29.5093 H   0  0  0  0  0  0  0  0  0  0  0  0
    0.1224  -11.6628   30.3315 H   0  0  0  0  0  0  0  0  0  0  0  0
  1  2  1  0
  2  3  1  0
  3  4  1  0
  4  5  1  0
  5  6  2  0
  6  7  1  0
  7  8  2  0
  8  9  1  0
  9 10  2  0
 10 11  1  0
 11 12  2  0
  2 13  1  0
 13 14  2  0
 13 15  2  0
 13 16  1  0
 12  4  1  0
 12  7  1  0
  1 17  1  0
  1 18  1  0
  1 19  1  0
  2 20  1  0
  3 21  1  0
  3 22  1  0
  5 23  1  0
  6 24  1  0
  8 25  1  0
  9 26  1  0
 10 27  1  0
 11 28  1  0
M  END
>  <Energy>  (1031) 
1064.8033091143691

>  <compound_id>  (1031) 
46973

>  <target_id>  (1031) 
1

>  <reference_id>  (1031) 
40

>  <inspiration_ids>  (1031) 
[40, 123]

>  <energy_score>  (1031) 
1049.3585140089695

>  <distance_score>  (1031) 
7.0348889393818785

>  <path>  (1031) 
/opt/xchem-fragalysis-2/maxwin/BulkDock/SCRATCH/511023/C46973-P40/C46973-P40.minimised.mol

>  <scratch_subdir>  (1031) 
/opt/xchem-fragalysis-2/maxwin/BulkDock/SCRATCH/511023/C46973-P40

>  <fragmenstein_runtime>  (1031) 
8.392448902130127

>  <fragmenstein_outcome>  (1031) 
too moved

>  <fragmenstein_mode>  (1031) 
expansion

>  <fragmenstein_error>  (1031) 


$$$$
C46973-P123
     RDKit          3D

 28 29  0  0  0  0  0  0  0  0999 V2000
   -6.7708  -15.6558   34.6749 C   0  0  0  0  0  0  0  0  0  0  0  0
   -7.4171  -15.7469   33.3759 C   0  0  0  0  0  0  0  0  0  0  0  0
   -7.7151  -14.2490   32.2658 C   0  0  0  0  0  0  0  0  0  0  0  0
   -6.5209  -13.0699   31.3540 N   0  0  0  0  0  0  0  0  0  0  0  0
   -5.8250  -13.4956   30.1612 C   0  0  0  0  0  0  0  0  0  0  0  0
   -4.7967  -12.5976   29.8220 C   0  0  0  0  0  0  0  0  0  0  0  0
   -4.3955  -11.7494   30.7667 C   0  0  0  0  0  0  0  0  0  0  0  0
   -2.9932  -10.8116   30.9760 C   0  0  0  0  0  0  0  0  0  0  0  0
   -2.8151   -9.7123   31.8928 C   0  0  0  0  0  0  0  0  0  0  0  0
   -3.9506   -9.3762   32.5848 C   0  0  0  0  0  0  0  0  0  0  0  0
   -5.2275  -10.1715   32.3554 C   0  0  0  0  0  0  0  0  0  0  0  0
   -5.6292  -11.5331   31.4659 C   0  0  0  0  0  0  0  0  0  0  0  0
   -8.8798  -16.5985   34.1242 S   0  0  0  0  0  0  0  0  0  0  0  0
   -9.0327  -16.6025   35.5672 O   0  0  0  0  0  0  0  0  0  0  0  0
   -9.9260  -16.0760   33.3102 O   0  0  0  0  0  0  0  0  0  0  0  0
   -8.1907  -18.5023   33.9843 Cl  0  0  0  0  0  0  0  0  0  0  0  0
   -5.7855  -15.2686   34.4742 H   0  0  0  0  0  0  0  0  0  0  0  0
   -6.7949  -16.6682   35.0952 H   0  0  0  0  0  0  0  0  0  0  0  0
   -7.2924  -15.1940   35.5023 H   0  0  0  0  0  0  0  0  0  0  0  0
   -6.7784  -16.4911   32.8865 H   0  0  0  0  0  0  0  0  0  0  0  0
   -7.8830  -13.4743   32.9703 H   0  0  0  0  0  0  0  0  0  0  0  0
   -8.3766  -14.5024   31.4758 H   0  0  0  0  0  0  0  0  0  0  0  0
   -6.2567  -14.3089   29.6329 H   0  0  0  0  0  0  0  0  0  0  0  0
   -4.1872  -12.4121   28.9714 H   0  0  0  0  0  0  0  0  0  0  0  0
   -2.1752  -11.1398   30.3271 H   0  0  0  0  0  0  0  0  0  0  0  0
   -1.8646   -9.2245   32.0583 H   0  0  0  0  0  0  0  0  0  0  0  0
   -3.8786   -8.7784   33.4839 H   0  0  0  0  0  0  0  0  0  0  0  0
   -5.5020   -9.3763   31.6288 H   0  0  0  0  0  0  0  0  0  0  0  0
  1  2  1  0
  2  3  1  0
  3  4  1  0
  4  5  1  0
  5  6  2  0
  6  7  1  0
  7  8  2  0
  8  9  1  0
  9 10  2  0
 10 11  1  0
 11 12  2  0
  2 13  1  0
 13 14  2  0
 13 15  2  0
 13 16  1  0
 12  4  1  0
 12  7  1  0
  1 17  1  0
  1 18  1  0
  1 19  1  0
  2 20  1  0
  3 21  1  0
  3 22  1  0
  5 23  1  0
  6 24  1  0
  8 25  1  0
  9 26  1  0
 10 27  1  0
 11 28  1  0
M  END
>  <Energy>  (1032) 
380.42849664130597

>  <compound_id>  (1032) 
46973

>  <target_id>  (1032) 
1

>  <reference_id>  (1032) 
123

>  <inspiration_ids>  (1032) 
[40, 123]

>  <energy_score>  (1032) 
364.9837015359184

>  <distance_score>  (1032) 
8.267735593729185

>  <path>  (1032) 
/opt/xchem-fragalysis-2/maxwin/BulkDock/SCRATCH/511023/C46973-P123/C46973-P123.minimised.mol

>  <scratch_subdir>  (1032) 
/opt/xchem-fragalysis-2/maxwin/BulkDock/SCRATCH/511023/C46973-P123

>  <fragmenstein_runtime>  (1032) 
8.186695337295532

>  <fragmenstein_outcome>  (1032) 
too moved

>  <fragmenstein_mode>  (1032) 
expansion

>  <fragmenstein_error>  (1032) 


$$$$
C46975-P40
     RDKit          3D

 39 40  0  0  0  0  0  0  0  0999 V2000
   -6.6057  -10.8597   36.6658 C   0  0  0  0  0  0  0  0  0  0  0  0
   -5.3465  -10.4481   35.8965 C   0  0  0  0  0  0  0  0  0  0  0  0
   -5.1760  -10.3306   34.2362 N   0  0  0  0  0  0  0  0  0  0  0  0
   -3.7174   -9.1365   34.0409 C   0  0  0  0  0  0  0  0  0  0  0  0
   -2.9763   -8.7240   35.1347 C   0  0  0  0  0  0  0  0  0  0  0  0
   -1.7911   -7.8758   35.0609 C   0  0  0  0  0  0  0  0  0  0  0  0
   -1.2487   -7.5032   33.8208 C   0  0  0  0  0  0  0  0  0  0  0  0
   -0.1701   -6.7140   33.4921 N   0  0  0  0  0  0  0  0  0  0  0  0
   -0.0295   -6.6493   32.1283 C   0  0  0  0  0  0  0  0  0  0  0  0
   -1.0173   -7.4290   31.5709 C   0  0  0  0  0  0  0  0  0  0  0  0
   -1.7925   -7.9721   32.6370 C   0  0  0  0  0  0  0  0  0  0  0  0
   -2.9900   -8.7516   32.7537 C   0  0  0  0  0  0  0  0  0  0  0  0
   -6.1466  -11.8379   32.8506 S   0  0  0  0  0  0  0  0  0  0  0  0
   -6.1468  -11.6571   31.4588 O   0  0  0  0  0  0  0  0  0  0  0  0
   -5.6249  -13.1409   33.1582 O   0  0  0  0  0  0  0  0  0  0  0  0
   -7.9467  -12.1862   33.1691 C   0  0  0  0  0  0  0  0  0  0  0  0
   -8.7078  -13.9392   32.9663 C   0  0  0  0  0  0  0  0  0  0  0  0
   -9.8187  -15.2542   33.4834 C   0  0  0  0  0  0  0  0  0  0  0  0
  -10.0051  -16.3888   34.5605 C   0  0  0  0  0  0  0  0  0  0  0  0
   -9.2213  -16.1850   32.6854 F   0  0  0  0  0  0  0  0  0  0  0  0
  -11.0282  -14.9884   32.9388 F   0  0  0  0  0  0  0  0  0  0  0  0
   -7.4459  -11.2416   36.0931 H   0  0  0  0  0  0  0  0  0  0  0  0
   -6.3461  -11.6051   37.4267 H   0  0  0  0  0  0  0  0  0  0  0  0
   -7.0025  -10.0125   37.2350 H   0  0  0  0  0  0  0  0  0  0  0  0
   -4.4945  -10.9895   36.2775 H   0  0  0  0  0  0  0  0  0  0  0  0
   -5.1551   -9.4363   36.2619 H   0  0  0  0  0  0  0  0  0  0  0  0
   -3.1605   -9.2001   36.0858 H   0  0  0  0  0  0  0  0  0  0  0  0
   -1.2599   -7.6240   35.9763 H   0  0  0  0  0  0  0  0  0  0  0  0
    0.3988   -6.2179   34.1650 H   0  0  0  0  0  0  0  0  0  0  0  0
    0.7471   -6.0424   31.6834 H   0  0  0  0  0  0  0  0  0  0  0  0
   -1.1758   -7.5532   30.5114 H   0  0  0  0  0  0  0  0  0  0  0  0
   -3.5103   -8.8618   31.8085 H   0  0  0  0  0  0  0  0  0  0  0  0
   -8.0537  -11.6723   34.1278 H   0  0  0  0  0  0  0  0  0  0  0  0
   -8.5377  -11.5932   32.4743 H   0  0  0  0  0  0  0  0  0  0  0  0
   -8.2575  -14.4284   32.0952 H   0  0  0  0  0  0  0  0  0  0  0  0
   -9.5658  -13.3901   32.7956 H   0  0  0  0  0  0  0  0  0  0  0  0
   -9.1327  -16.5685   35.1937 H   0  0  0  0  0  0  0  0  0  0  0  0
  -10.0758  -17.3980   34.1359 H   0  0  0  0  0  0  0  0  0  0  0  0
  -10.9582  -16.2831   35.0910 H   0  0  0  0  0  0  0  0  0  0  0  0
  1  2  1  0
  2  3  1  0
  3  4  1  0
  4  5  2  0
  5  6  1  0
  6  7  2  0
  7  8  1  0
  8  9  1  0
  9 10  2  0
 10 11  1  0
 11 12  2  0
  3 13  1  0
 13 14  2  0
 13 15  2  0
 13 16  1  0
 16 17  1  0
 17 18  1  0
 18 19  1  0
 18 20  1  0
 18 21  1  0
 12  4  1  0
 11  7  1  0
  1 22  1  0
  1 23  1  0
  1 24  1  0
  2 25  1  0
  2 26  1  0
  5 27  1  0
  6 28  1  0
  8 29  1  0
  9 30  1  0
 10 31  1  0
 12 32  1  0
 16 33  1  0
 16 34  1  0
 17 35  1  0
 17 36  1  0
 19 37  1  0
 19 38  1  0
 19 39  1  0
M  END
>  <Energy>  (1033) 
349.26202610441533

>  <compound_id>  (1033) 
46975

>  <target_id>  (1033) 
1

>  <reference_id>  (1033) 
40

>  <inspiration_ids>  (1033) 
[40, 123]

>  <energy_score>  (1033) 
350.85665575079275

>  <distance_score>  (1033) 
6.8896729708558935

>  <path>  (1033) 
/opt/xchem-fragalysis-2/maxwin/BulkDock/SCRATCH/511023/C46975-P40/C46975-P40.minimised.mol

>  <scratch_subdir>  (1033) 
/opt/xchem-fragalysis-2/maxwin/BulkDock/SCRATCH/511023/C46975-P40

>  <fragmenstein_runtime>  (1033) 
14.200868844985962

>  <fragmenstein_outcome>  (1033) 
too moved

>  <fragmenstein_mode>  (1033) 
expansion

>  <fragmenstein_error>  (1033) 


$$$$
C46975-P123
     RDKit          3D

 39 40  0  0  0  0  0  0  0  0999 V2000
   -3.5241   -9.0548   34.0934 C   0  0  0  0  0  0  0  0  0  0  0  0
   -2.5470   -9.9197   33.2960 C   0  0  0  0  0  0  0  0  0  0  0  0
   -3.0792  -10.4821   31.5752 N   0  0  0  0  0  0  0  0  0  0  0  0
   -1.7228   -9.6620   31.0388 C   0  0  0  0  0  0  0  0  0  0  0  0
   -1.7548   -8.2547   31.5851 C   0  0  0  0  0  0  0  0  0  0  0  0
   -1.0504   -7.1141   31.2193 C   0  0  0  0  0  0  0  0  0  0  0  0
   -0.6389   -7.2200   29.9241 C   0  0  0  0  0  0  0  0  0  0  0  0
   -0.3363   -6.1931   29.0571 N   0  0  0  0  0  0  0  0  0  0  0  0
   -0.3030   -6.6834   27.7919 C   0  0  0  0  0  0  0  0  0  0  0  0
   -0.2390   -8.0510   27.9104 C   0  0  0  0  0  0  0  0  0  0  0  0
   -0.5329   -8.4467   29.2507 C   0  0  0  0  0  0  0  0  0  0  0  0
   -0.8777   -9.7362   29.8932 C   0  0  0  0  0  0  0  0  0  0  0  0
   -4.5530  -12.0498   30.7019 S   0  0  0  0  0  0  0  0  0  0  0  0
   -5.6531  -11.2328   31.2021 O   0  0  0  0  0  0  0  0  0  0  0  0
   -3.8519  -12.1666   29.4469 O   0  0  0  0  0  0  0  0  0  0  0  0
   -5.9080  -14.0322   30.6849 C   0  0  0  0  0  0  0  0  0  0  0  0
   -5.9181  -15.8062   31.7757 C   0  0  0  0  0  0  0  0  0  0  0  0
   -7.1002  -16.2157   33.1780 C   0  0  0  0  0  0  0  0  0  0  0  0
   -7.2069  -17.6425   33.6534 C   0  0  0  0  0  0  0  0  0  0  0  0
   -8.3696  -15.8309   32.8869 F   0  0  0  0  0  0  0  0  0  0  0  0
   -6.7303  -15.5349   34.2781 F   0  0  0  0  0  0  0  0  0  0  0  0
   -3.0649   -8.0910   34.3285 H   0  0  0  0  0  0  0  0  0  0  0  0
   -3.7101   -9.4934   35.0755 H   0  0  0  0  0  0  0  0  0  0  0  0
   -4.4801   -8.9635   33.5772 H   0  0  0  0  0  0  0  0  0  0  0  0
   -1.5858   -9.4039   33.2910 H   0  0  0  0  0  0  0  0  0  0  0  0
   -2.1325  -10.7502   33.8833 H   0  0  0  0  0  0  0  0  0  0  0  0
   -2.5855   -7.9691   32.2263 H   0  0  0  0  0  0  0  0  0  0  0  0
   -1.1788   -6.1654   31.7262 H   0  0  0  0  0  0  0  0  0  0  0  0
   -0.3296   -5.2124   29.3051 H   0  0  0  0  0  0  0  0  0  0  0  0
   -0.2348   -6.0348   26.9317 H   0  0  0  0  0  0  0  0  0  0  0  0
   -0.1826   -8.6976   27.0703 H   0  0  0  0  0  0  0  0  0  0  0  0
   -0.8430  -10.6057   29.2753 H   0  0  0  0  0  0  0  0  0  0  0  0
   -6.8383  -13.6405   31.0754 H   0  0  0  0  0  0  0  0  0  0  0  0
   -6.1326  -14.2341   29.6527 H   0  0  0  0  0  0  0  0  0  0  0  0
   -5.8281  -16.5650   30.9860 H   0  0  0  0  0  0  0  0  0  0  0  0
   -5.1048  -16.1915   32.4498 H   0  0  0  0  0  0  0  0  0  0  0  0
   -8.2277  -18.0145   33.7261 H   0  0  0  0  0  0  0  0  0  0  0  0
   -6.6068  -18.2494   32.9962 H   0  0  0  0  0  0  0  0  0  0  0  0
   -6.8863  -17.7363   34.6925 H   0  0  0  0  0  0  0  0  0  0  0  0
  1  2  1  0
  2  3  1  0
  3  4  1  0
  4  5  2  0
  5  6  1  0
  6  7  2  0
  7  8  1  0
  8  9  1  0
  9 10  2  0
 10 11  1  0
 11 12  2  0
  3 13  1  0
 13 14  2  0
 13 15  2  0
 13 16  1  0
 16 17  1  0
 17 18  1  0
 18 19  1  0
 18 20  1  0
 18 21  1  0
 12  4  1  0
 11  7  1  0
  1 22  1  0
  1 23  1  0
  1 24  1  0
  2 25  1  0
  2 26  1  0
  5 27  1  0
  6 28  1  0
  8 29  1  0
  9 30  1  0
 10 31  1  0
 12 32  1  0
 16 33  1  0
 16 34  1  0
 17 35  1  0
 17 36  1  0
 19 37  1  0
 19 38  1  0
 19 39  1  0
M  END
>  <Energy>  (1034) 
598.06055359818913

>  <compound_id>  (1034) 
46975

>  <target_id>  (1034) 
1

>  <reference_id>  (1034) 
123

>  <inspiration_ids>  (1034) 
[40, 123]

>  <energy_score>  (1034) 
599.655183244556

>  <distance_score>  (1034) 
5.837669217758395

>  <path>  (1034) 
/opt/xchem-fragalysis-2/maxwin/BulkDock/SCRATCH/511023/C46975-P123/C46975-P123.minimised.mol

>  <scratch_subdir>  (1034) 
/opt/xchem-fragalysis-2/maxwin/BulkDock/SCRATCH/511023/C46975-P123

>  <fragmenstein_runtime>  (1034) 
15.161769151687622

>  <fragmenstein_outcome>  (1034) 
too moved

>  <fragmenstein_mode>  (1034) 
expansion

>  <fragmenstein_error>  (1034) 


$$$$
C46977-P40
     RDKit          3D

 30 31  0  0  0  0  0  0  0  0999 V2000
   -6.1275  -12.1457   26.8811 C   0  0  0  0  0  0  0  0  0  0  0  0
   -6.8338  -12.8032   28.2721 N   0  0  0  0  0  0  0  0  0  0  0  0
   -8.3921  -13.7373   27.7654 C   0  0  0  0  0  0  0  0  0  0  0  0
   -9.5242  -13.3585   27.7016 O   0  0  0  0  0  0  0  0  0  0  0  0
   -8.3306  -15.1525   27.2305 C   0  0  0  0  0  0  0  0  0  0  0  0
   -8.6959  -16.3746   27.8388 O   0  0  0  0  0  0  0  0  0  0  0  0
  -10.1017  -16.5088   28.0703 C   0  0  0  0  0  0  0  0  0  0  0  0
  -10.5537  -15.5557   28.9038 F   0  0  0  0  0  0  0  0  0  0  0  0
  -10.7735  -16.4381   26.9060 F   0  0  0  0  0  0  0  0  0  0  0  0
   -6.6679  -10.8133   29.0755 C   0  0  0  0  0  0  0  0  0  0  0  0
   -8.3607   -9.9151   29.4715 C   0  0  0  0  0  0  0  0  0  0  0  0
   -8.9209   -8.7192   29.2686 C   0  0  0  0  0  0  0  0  0  0  0  0
   -7.6237   -8.7792   29.0801 C   0  0  0  0  0  0  0  0  0  0  0  0
   -6.5765   -8.9545   28.1635 C   0  0  0  0  0  0  0  0  0  0  0  0
   -5.6077   -8.1723   28.9127 C   0  0  0  0  0  0  0  0  0  0  0  0
   -6.4052   -7.9669   30.0826 N   0  0  0  0  0  0  0  0  0  0  0  0
   -6.6619   -9.1882   30.0019 C   0  0  0  0  0  0  0  0  0  0  0  0
   -6.4671  -10.4988   30.3005 C   0  0  0  0  0  0  0  0  0  0  0  0
   -6.1791  -11.2667   26.2031 H   0  0  0  0  0  0  0  0  0  0  0  0
   -6.2138  -13.1178   26.4229 H   0  0  0  0  0  0  0  0  0  0  0  0
   -7.0686  -12.2484   26.2870 H   0  0  0  0  0  0  0  0  0  0  0  0
   -7.9743  -15.2314   26.1783 H   0  0  0  0  0  0  0  0  0  0  0  0
   -9.2760  -15.0354   26.6569 H   0  0  0  0  0  0  0  0  0  0  0  0
  -10.3128  -17.4540   28.5317 H   0  0  0  0  0  0  0  0  0  0  0  0
   -8.9769  -10.3399   30.3137 H   0  0  0  0  0  0  0  0  0  0  0  0
   -9.7257   -8.5783   28.5661 H   0  0  0  0  0  0  0  0  0  0  0  0
   -6.6831   -9.1397   27.1203 H   0  0  0  0  0  0  0  0  0  0  0  0
   -4.6161   -7.8535   28.6950 H   0  0  0  0  0  0  0  0  0  0  0  0
   -6.1101   -7.4268   30.8756 H   0  0  0  0  0  0  0  0  0  0  0  0
   -5.9768  -11.1277   31.0290 H   0  0  0  0  0  0  0  0  0  0  0  0
  1  2  1  0
  2  3  1  0
  3  4  2  0
  3  5  1  0
  5  6  1  0
  6  7  1  0
  7  8  1  0
  7  9  1  0
  2 10  1  0
 10 11  2  0
 11 12  1  0
 12 13  2  0
 13 14  1  0
 14 15  2  0
 15 16  1  0
 16 17  1  0
 17 18  2  0
 18 10  1  0
 17 13  1  0
  1 19  1  0
  1 20  1  0
  1 21  1  0
  5 22  1  0
  5 23  1  0
  7 24  1  0
 11 25  1  0
 12 26  1  0
 14 27  1  0
 15 28  1  0
 16 29  1  0
 18 30  1  0
M  END
>  <Energy>  (1035) 
958.63977270370344

>  <compound_id>  (1035) 
46977

>  <target_id>  (1035) 
1

>  <reference_id>  (1035) 
40

>  <inspiration_ids>  (1035) 
[40, 123]

>  <energy_score>  (1035) 
894.6257280673168

>  <distance_score>  (1035) 
9.027696915281863

>  <path>  (1035) 
/opt/xchem-fragalysis-2/maxwin/BulkDock/SCRATCH/511023/C46977-P40/C46977-P40.minimised.mol

>  <scratch_subdir>  (1035) 
/opt/xchem-fragalysis-2/maxwin/BulkDock/SCRATCH/511023/C46977-P40

>  <fragmenstein_runtime>  (1035) 
12.81066370010376

>  <fragmenstein_outcome>  (1035) 
too moved

>  <fragmenstein_mode>  (1035) 
expansion

>  <fragmenstein_error>  (1035) 


$$$$
C46977-P123
     RDKit          3D

 30 31  0  0  0  0  0  0  0  0999 V2000
   -7.1200  -11.3816   25.9549 C   0  0  0  0  0  0  0  0  0  0  0  0
   -6.3694  -12.5950   26.5729 N   0  0  0  0  0  0  0  0  0  0  0  0
   -7.4585  -13.6502   27.3593 C   0  0  0  0  0  0  0  0  0  0  0  0
   -7.8062  -13.6476   28.5003 O   0  0  0  0  0  0  0  0  0  0  0  0
   -8.3104  -14.7906   26.5351 C   0  0  0  0  0  0  0  0  0  0  0  0
   -8.4062  -15.9287   27.4716 O   0  0  0  0  0  0  0  0  0  0  0  0
   -9.6588  -16.4910   27.6422 C   0  0  0  0  0  0  0  0  0  0  0  0
   -9.4485  -17.6948   28.1931 F   0  0  0  0  0  0  0  0  0  0  0  0
  -10.4167  -15.7838   28.4931 F   0  0  0  0  0  0  0  0  0  0  0  0
   -5.2991  -11.2235   27.2872 C   0  0  0  0  0  0  0  0  0  0  0  0
   -3.4114  -11.4514   28.0531 C   0  0  0  0  0  0  0  0  0  0  0  0
   -1.8187  -10.1912   28.5661 C   0  0  0  0  0  0  0  0  0  0  0  0
   -1.9954   -8.1048   28.6139 C   0  0  0  0  0  0  0  0  0  0  0  0
   -1.1079   -7.0446   28.6703 C   0  0  0  0  0  0  0  0  0  0  0  0
   -1.5399   -6.4194   27.5488 C   0  0  0  0  0  0  0  0  0  0  0  0
   -2.6926   -7.0174   26.9920 N   0  0  0  0  0  0  0  0  0  0  0  0
   -3.9332   -7.7643   27.9854 C   0  0  0  0  0  0  0  0  0  0  0  0
   -5.5157   -9.0647   27.4899 C   0  0  0  0  0  0  0  0  0  0  0  0
   -8.2045  -11.4504   26.0530 H   0  0  0  0  0  0  0  0  0  0  0  0
   -6.8117  -11.5046   24.9305 H   0  0  0  0  0  0  0  0  0  0  0  0
   -6.9225  -10.3465   26.1015 H   0  0  0  0  0  0  0  0  0  0  0  0
   -9.3550  -14.4629   26.4678 H   0  0  0  0  0  0  0  0  0  0  0  0
   -7.9085  -15.1173   25.5859 H   0  0  0  0  0  0  0  0  0  0  0  0
  -10.0988  -16.5959   26.6716 H   0  0  0  0  0  0  0  0  0  0  0  0
   -3.2754  -12.3053   27.3571 H   0  0  0  0  0  0  0  0  0  0  0  0
   -0.7643  -10.4428   28.6950 H   0  0  0  0  0  0  0  0  0  0  0  0
   -0.1112   -6.9755   29.0756 H   0  0  0  0  0  0  0  0  0  0  0  0
   -0.9817   -5.7375   26.9289 H   0  0  0  0  0  0  0  0  0  0  0  0
   -2.7263   -7.1955   26.0029 H   0  0  0  0  0  0  0  0  0  0  0  0
   -6.2783   -8.9836   28.3270 H   0  0  0  0  0  0  0  0  0  0  0  0
  1  2  1  0
  2  3  1  0
  3  4  2  0
  3  5  1  0
  5  6  1  0
  6  7  1  0
  7  8  1  0
  7  9  1  0
  2 10  1  0
 10 11  2  0
 11 12  1  0
 12 13  2  0
 13 14  1  0
 14 15  2  0
 15 16  1  0
 16 17  1  0
 17 18  2  0
 18 10  1  0
 17 13  1  0
  1 19  1  0
  1 20  1  0
  1 21  1  0
  5 22  1  0
  5 23  1  0
  7 24  1  0
 11 25  1  0
 12 26  1  0
 14 27  1  0
 15 28  1  0
 16 29  1  0
 18 30  1  0
M  END
>  <Energy>  (1036) 
1387.6277427625707

>  <compound_id>  (1036) 
46977

>  <target_id>  (1036) 
1

>  <reference_id>  (1036) 
123

>  <inspiration_ids>  (1036) 
[40, 123]

>  <energy_score>  (1036) 
1323.613698126233

>  <distance_score>  (1036) 
7.468797730172309

>  <path>  (1036) 
/opt/xchem-fragalysis-2/maxwin/BulkDock/SCRATCH/511023/C46977-P123/C46977-P123.minimised.mol

>  <scratch_subdir>  (1036) 
/opt/xchem-fragalysis-2/maxwin/BulkDock/SCRATCH/511023/C46977-P123

>  <fragmenstein_runtime>  (1036) 
11.069159746170044

>  <fragmenstein_outcome>  (1036) 
too moved

>  <fragmenstein_mode>  (1036) 
expansion

>  <fragmenstein_error>  (1036) 


$$$$
C46989-P40
     RDKit          3D

 38 39  0  0  0  0  0  0  0  0999 V2000
  -11.1541  -19.5340   29.5430 C   0  0  0  0  0  0  0  0  0  0  0  0
  -10.5825  -18.2642   29.0608 C   0  0  0  0  0  0  0  0  0  0  0  0
   -8.7427  -17.0896   28.3800 C   0  0  0  0  0  0  0  0  0  0  0  0
   -7.9473  -14.9571   28.5693 C   0  0  0  0  0  0  0  0  0  0  0  0
   -6.7886  -13.7244   30.0846 C   0  0  0  0  0  0  0  0  0  0  0  0
   -6.1972  -11.4941   31.2955 S   0  0  0  0  0  0  0  0  0  0  0  0
   -5.9617  -12.0242   32.6054 O   0  0  0  0  0  0  0  0  0  0  0  0
   -5.6828  -11.1659   29.9614 O   0  0  0  0  0  0  0  0  0  0  0  0
   -4.8454   -9.3839   31.6469 N   0  0  0  0  0  0  0  0  0  0  0  0
   -5.0164   -9.0366   33.3306 C   0  0  0  0  0  0  0  0  0  0  0  0
   -3.9297   -8.9868   34.5149 C   0  0  0  0  0  0  0  0  0  0  0  0
   -2.9328   -9.0346   31.7884 C   0  0  0  0  0  0  0  0  0  0  0  0
   -2.5355   -7.7742   32.2053 C   0  0  0  0  0  0  0  0  0  0  0  0
   -1.3190   -7.1245   32.6573 C   0  0  0  0  0  0  0  0  0  0  0  0
   -0.5021   -7.2420   31.5789 C   0  0  0  0  0  0  0  0  0  0  0  0
    0.3545   -6.3778   30.9526 N   0  0  0  0  0  0  0  0  0  0  0  0
    0.6740   -6.8997   29.7230 C   0  0  0  0  0  0  0  0  0  0  0  0
    0.1520   -8.1746   29.6782 C   0  0  0  0  0  0  0  0  0  0  0  0
   -0.6184   -8.4072   30.8475 C   0  0  0  0  0  0  0  0  0  0  0  0
   -1.6107   -9.4450   31.2799 C   0  0  0  0  0  0  0  0  0  0  0  0
  -11.5280  -20.5165   29.7971 H   0  0  0  0  0  0  0  0  0  0  0  0
   -7.9987  -17.8609   28.3600 H   0  0  0  0  0  0  0  0  0  0  0  0
   -9.0246  -16.9969   27.2934 H   0  0  0  0  0  0  0  0  0  0  0  0
   -8.2314  -14.3354   27.7094 H   0  0  0  0  0  0  0  0  0  0  0  0
   -6.9486  -15.3618   28.4603 H   0  0  0  0  0  0  0  0  0  0  0  0
   -7.0901  -14.2022   31.0372 H   0  0  0  0  0  0  0  0  0  0  0  0
   -5.7919  -14.1290   30.0410 H   0  0  0  0  0  0  0  0  0  0  0  0
   -5.5829   -8.1627   33.1405 H   0  0  0  0  0  0  0  0  0  0  0  0
   -5.5757   -9.9196   33.6870 H   0  0  0  0  0  0  0  0  0  0  0  0
   -4.2394   -8.2579   35.2459 H   0  0  0  0  0  0  0  0  0  0  0  0
   -2.9046   -8.7491   34.2803 H   0  0  0  0  0  0  0  0  0  0  0  0
   -3.9427   -9.8926   35.1288 H   0  0  0  0  0  0  0  0  0  0  0  0
   -2.7614   -7.2312   31.2785 H   0  0  0  0  0  0  0  0  0  0  0  0
   -1.3755   -6.1970   33.2216 H   0  0  0  0  0  0  0  0  0  0  0  0
    0.5819   -5.4453   31.2766 H   0  0  0  0  0  0  0  0  0  0  0  0
    1.2701   -6.3301   29.0214 H   0  0  0  0  0  0  0  0  0  0  0  0
    0.2326   -8.8630   28.8709 H   0  0  0  0  0  0  0  0  0  0  0  0
   -1.4001  -10.3128   30.6619 H   0  0  0  0  0  0  0  0  0  0  0  0
  1  2  3  0
  2  3  1  0
  3  4  1  0
  4  5  1  0
  5  6  1  0
  6  7  2  0
  6  8  2  0
  6  9  1  0
  9 10  1  0
 10 11  1  0
  9 12  1  0
 12 13  2  0
 13 14  1  0
 14 15  2  0
 15 16  1  0
 16 17  1  0
 17 18  2  0
 18 19  1  0
 19 20  2  0
 20 12  1  0
 19 15  1  0
  1 21  1  0
  3 22  1  0
  3 23  1  0
  4 24  1  0
  4 25  1  0
  5 26  1  0
  5 27  1  0
 10 28  1  0
 10 29  1  0
 11 30  1  0
 11 31  1  0
 11 32  1  0
 13 33  1  0
 14 34  1  0
 16 35  1  0
 17 36  1  0
 18 37  1  0
 20 38  1  0
M  END
>  <Energy>  (1037) 
1508.0370058745386

>  <compound_id>  (1037) 
46989

>  <target_id>  (1037) 
1

>  <reference_id>  (1037) 
40

>  <inspiration_ids>  (1037) 
[40, 123]

>  <energy_score>  (1037) 
1501.193889108271

>  <distance_score>  (1037) 
5.2383282755017415

>  <path>  (1037) 
/opt/xchem-fragalysis-2/maxwin/BulkDock/SCRATCH/511023/C46989-P40/C46989-P40.minimised.mol

>  <scratch_subdir>  (1037) 
/opt/xchem-fragalysis-2/maxwin/BulkDock/SCRATCH/511023/C46989-P40

>  <fragmenstein_runtime>  (1037) 
11.950166463851929

>  <fragmenstein_outcome>  (1037) 
too moved

>  <fragmenstein_mode>  (1037) 
expansion

>  <fragmenstein_error>  (1037) 


$$$$
C46989-P123
     RDKit          3D

 38 39  0  0  0  0  0  0  0  0999 V2000
   -5.5685  -13.2467   30.1456 C   0  0  0  0  0  0  0  0  0  0  0  0
   -4.6717  -12.4520   30.0774 C   0  0  0  0  0  0  0  0  0  0  0  0
   -3.3036  -12.0250   29.7584 C   0  0  0  0  0  0  0  0  0  0  0  0
   -2.3182  -11.0140   30.5889 C   0  0  0  0  0  0  0  0  0  0  0  0
   -1.7872   -9.7818   31.4941 C   0  0  0  0  0  0  0  0  0  0  0  0
   -2.4515   -8.3192   32.1307 S   0  0  0  0  0  0  0  0  0  0  0  0
   -3.3663   -8.7572   33.1564 O   0  0  0  0  0  0  0  0  0  0  0  0
   -2.8012   -7.6176   30.9362 O   0  0  0  0  0  0  0  0  0  0  0  0
   -1.1564   -7.4547   32.8053 N   0  0  0  0  0  0  0  0  0  0  0  0
   -0.9517   -7.6013   34.2505 C   0  0  0  0  0  0  0  0  0  0  0  0
   -1.7466   -6.6611   35.1056 C   0  0  0  0  0  0  0  0  0  0  0  0
   -0.4812   -6.3574   32.0793 C   0  0  0  0  0  0  0  0  0  0  0  0
    0.1669   -5.3167   32.7668 C   0  0  0  0  0  0  0  0  0  0  0  0
    0.7698   -4.2180   32.1269 C   0  0  0  0  0  0  0  0  0  0  0  0
    0.6897   -4.1655   30.7398 C   0  0  0  0  0  0  0  0  0  0  0  0
    1.1276   -3.2132   29.8495 N   0  0  0  0  0  0  0  0  0  0  0  0
    0.7801   -3.5701   28.5747 C   0  0  0  0  0  0  0  0  0  0  0  0
    0.1212   -4.7755   28.6417 C   0  0  0  0  0  0  0  0  0  0  0  0
    0.0979   -5.1817   30.0023 C   0  0  0  0  0  0  0  0  0  0  0  0
   -0.4085   -6.3135   30.6801 C   0  0  0  0  0  0  0  0  0  0  0  0
   -6.3005  -14.0090   30.1834 H   0  0  0  0  0  0  0  0  0  0  0  0
   -3.3274  -11.7698   28.7180 H   0  0  0  0  0  0  0  0  0  0  0  0
   -2.8270  -12.9749   29.7016 H   0  0  0  0  0  0  0  0  0  0  0  0
   -3.2128  -10.6758   31.0749 H   0  0  0  0  0  0  0  0  0  0  0  0
   -1.7037  -10.7353   29.7363 H   0  0  0  0  0  0  0  0  0  0  0  0
   -1.5701  -10.1454   32.4800 H   0  0  0  0  0  0  0  0  0  0  0  0
   -1.0251   -9.3144   30.8583 H   0  0  0  0  0  0  0  0  0  0  0  0
   -1.2834   -8.5954   34.5467 H   0  0  0  0  0  0  0  0  0  0  0  0
    0.1040   -7.5045   34.5017 H   0  0  0  0  0  0  0  0  0  0  0  0
   -1.5891   -5.6133   34.8632 H   0  0  0  0  0  0  0  0  0  0  0  0
   -1.4776   -6.7952   36.1501 H   0  0  0  0  0  0  0  0  0  0  0  0
   -2.7962   -6.9156   35.0167 H   0  0  0  0  0  0  0  0  0  0  0  0
    0.2415   -5.3209   33.8483 H   0  0  0  0  0  0  0  0  0  0  0  0
    1.2476   -3.4342   32.7050 H   0  0  0  0  0  0  0  0  0  0  0  0
    1.6003   -2.3565   30.1035 H   0  0  0  0  0  0  0  0  0  0  0  0
    1.0187   -2.9233   27.7397 H   0  0  0  0  0  0  0  0  0  0  0  0
   -0.2967   -5.3153   27.8037 H   0  0  0  0  0  0  0  0  0  0  0  0
   -0.7756   -7.1151   30.0567 H   0  0  0  0  0  0  0  0  0  0  0  0
  1  2  3  0
  2  3  1  0
  3  4  1  0
  4  5  1  0
  5  6  1  0
  6  7  2  0
  6  8  2  0
  6  9  1  0
  9 10  1  0
 10 11  1  0
  9 12  1  0
 12 13  2  0
 13 14  1  0
 14 15  2  0
 15 16  1  0
 16 17  1  0
 17 18  2  0
 18 19  1  0
 19 20  2  0
 20 12  1  0
 19 15  1  0
  1 21  1  0
  3 22  1  0
  3 23  1  0
  4 24  1  0
  4 25  1  0
  5 26  1  0
  5 27  1  0
 10 28  1  0
 10 29  1  0
 11 30  1  0
 11 31  1  0
 11 32  1  0
 13 33  1  0
 14 34  1  0
 16 35  1  0
 17 36  1  0
 18 37  1  0
 20 38  1  0
M  END
>  <Energy>  (1038) 
125.065472460221

>  <compound_id>  (1038) 
46989

>  <target_id>  (1038) 
1

>  <reference_id>  (1038) 
123

>  <inspiration_ids>  (1038) 
[40, 123]

>  <energy_score>  (1038) 
118.22235569394405

>  <distance_score>  (1038) 
7.729005866310434

>  <path>  (1038) 
/opt/xchem-fragalysis-2/maxwin/BulkDock/SCRATCH/511023/C46989-P123/C46989-P123.minimised.mol

>  <scratch_subdir>  (1038) 
/opt/xchem-fragalysis-2/maxwin/BulkDock/SCRATCH/511023/C46989-P123

>  <fragmenstein_runtime>  (1038) 
17.490445852279663

>  <fragmenstein_outcome>  (1038) 
too moved

>  <fragmenstein_mode>  (1038) 
expansion

>  <fragmenstein_error>  (1038) 


$$$$
C46999-P40
     RDKit          3D

 23 24  0  0  0  0  0  0  0  0999 V2000
   -3.1962  -15.2511   31.7580 O   0  0  0  0  0  0  0  0  0  0  0  0
   -4.0521  -15.1519   30.6172 S   0  0  0  0  0  0  0  0  0  0  0  0
   -4.7064  -16.2423   29.9268 O   0  0  0  0  0  0  0  0  0  0  0  0
   -5.9717  -14.3868   30.9325 Cl  0  0  0  0  0  0  0  0  0  0  0  0
   -2.7142  -13.9335   29.2651 C   0  0  0  0  0  0  0  0  0  0  0  0
   -2.5287  -12.1689   29.3081 C   0  0  0  0  0  0  0  0  0  0  0  0
   -1.3891  -10.6043   29.7790 C   0  0  0  0  0  0  0  0  0  0  0  0
   -1.2391  -10.1337   31.0866 C   0  0  0  0  0  0  0  0  0  0  0  0
   -1.3403   -8.9158   31.8769 C   0  0  0  0  0  0  0  0  0  0  0  0
   -1.5063   -7.7124   31.2957 C   0  0  0  0  0  0  0  0  0  0  0  0
   -0.9905   -7.8409   30.0352 C   0  0  0  0  0  0  0  0  0  0  0  0
   -0.2997   -6.8102   29.4377 N   0  0  0  0  0  0  0  0  0  0  0  0
    0.7677   -7.3880   28.8486 C   0  0  0  0  0  0  0  0  0  0  0  0
    0.4813   -8.7129   29.0424 C   0  0  0  0  0  0  0  0  0  0  0  0
   -0.8222   -9.1421   29.3093 C   0  0  0  0  0  0  0  0  0  0  0  0
   -1.9830  -14.7050   29.0441 H   0  0  0  0  0  0  0  0  0  0  0  0
   -3.5195  -11.7548   29.2961 H   0  0  0  0  0  0  0  0  0  0  0  0
   -0.9117  -11.0139   31.5184 H   0  0  0  0  0  0  0  0  0  0  0  0
   -1.2264   -8.9137   32.9512 H   0  0  0  0  0  0  0  0  0  0  0  0
   -1.5226   -6.7910   31.8636 H   0  0  0  0  0  0  0  0  0  0  0  0
   -0.3248   -5.8467   29.7519 H   0  0  0  0  0  0  0  0  0  0  0  0
    1.6779   -6.8297   28.6649 H   0  0  0  0  0  0  0  0  0  0  0  0
    1.1576   -9.3789   29.4509 H   0  0  0  0  0  0  0  0  0  0  0  0
  1  2  2  0
  2  3  2  0
  2  4  1  0
  2  5  1  0
  5  6  2  3
  6  7  1  0
  7  8  2  0
  8  9  1  0
  9 10  2  0
 10 11  1  0
 11 12  1  0
 12 13  1  0
 13 14  2  0
 14 15  1  0
 15  7  1  0
 15 11  2  0
  5 16  1  0
  6 17  1  0
  8 18  1  0
  9 19  1  0
 10 20  1  0
 12 21  1  0
 13 22  1  0
 14 23  1  0
M  END
>  <Energy>  (1039) 
477.93955161050286

>  <compound_id>  (1039) 
46999

>  <target_id>  (1039) 
1

>  <reference_id>  (1039) 
40

>  <inspiration_ids>  (1039) 
[40, 123]

>  <energy_score>  (1039) 
427.20799787166743

>  <distance_score>  (1039) 
7.0264939441926

>  <path>  (1039) 
/opt/xchem-fragalysis-2/maxwin/BulkDock/SCRATCH/511023/C46999-P40/C46999-P40.minimised.mol

>  <scratch_subdir>  (1039) 
/opt/xchem-fragalysis-2/maxwin/BulkDock/SCRATCH/511023/C46999-P40

>  <fragmenstein_runtime>  (1039) 
7.963534355163574

>  <fragmenstein_outcome>  (1039) 
too moved

>  <fragmenstein_mode>  (1039) 
expansion

>  <fragmenstein_error>  (1039) 


$$$$
C46999-P123
     RDKit          3D

 23 24  0  0  0  0  0  0  0  0999 V2000
   -3.7257  -14.8448   35.7198 O   0  0  0  0  0  0  0  0  0  0  0  0
   -3.9324  -14.2258   34.4513 S   0  0  0  0  0  0  0  0  0  0  0  0
   -4.1299  -12.9107   35.1686 O   0  0  0  0  0  0  0  0  0  0  0  0
   -6.1987  -15.4132   34.2486 Cl  0  0  0  0  0  0  0  0  0  0  0  0
   -1.8507  -14.0612   33.3280 C   0  0  0  0  0  0  0  0  0  0  0  0
   -0.8886  -13.0924   32.1711 C   0  0  0  0  0  0  0  0  0  0  0  0
   -1.1583  -11.3828   31.0343 C   0  0  0  0  0  0  0  0  0  0  0  0
   -2.0449  -10.1767   31.7618 C   0  0  0  0  0  0  0  0  0  0  0  0
   -1.9065   -8.8110   32.0670 C   0  0  0  0  0  0  0  0  0  0  0  0
   -1.0224   -8.1374   31.3124 C   0  0  0  0  0  0  0  0  0  0  0  0
   -0.6432   -8.8711   30.1728 C   0  0  0  0  0  0  0  0  0  0  0  0
   -0.4410   -8.2148   28.9953 N   0  0  0  0  0  0  0  0  0  0  0  0
    0.0531   -9.0953   28.1140 C   0  0  0  0  0  0  0  0  0  0  0  0
    0.2787  -10.2869   28.7841 C   0  0  0  0  0  0  0  0  0  0  0  0
   -0.5714  -10.3582   29.9559 C   0  0  0  0  0  0  0  0  0  0  0  0
   -1.5767  -14.9781   33.7407 H   0  0  0  0  0  0  0  0  0  0  0  0
    0.0776  -13.5068   31.8716 H   0  0  0  0  0  0  0  0  0  0  0  0
   -3.0964  -10.3896   31.9146 H   0  0  0  0  0  0  0  0  0  0  0  0
   -2.5764   -8.3060   32.7499 H   0  0  0  0  0  0  0  0  0  0  0  0
   -0.9149   -7.0601   31.3786 H   0  0  0  0  0  0  0  0  0  0  0  0
   -0.4601   -7.2102   28.8832 H   0  0  0  0  0  0  0  0  0  0  0  0
    0.3257   -8.6150   27.2013 H   0  0  0  0  0  0  0  0  0  0  0  0
    0.8939  -11.0591   28.3692 H   0  0  0  0  0  0  0  0  0  0  0  0
  1  2  2  0
  2  3  2  0
  2  4  1  0
  2  5  1  0
  5  6  2  3
  6  7  1  0
  7  8  2  0
  8  9  1  0
  9 10  2  0
 10 11  1  0
 11 12  1  0
 12 13  1  0
 13 14  2  0
 14 15  1  0
 15  7  1  0
 15 11  2  0
  5 16  1  0
  6 17  1  0
  8 18  1  0
  9 19  1  0
 10 20  1  0
 12 21  1  0
 13 22  1  0
 14 23  1  0
M  END
>  <Energy>  (1040) 
608.26624515520041

>  <compound_id>  (1040) 
46999

>  <target_id>  (1040) 
1

>  <reference_id>  (1040) 
123

>  <inspiration_ids>  (1040) 
[40, 123]

>  <energy_score>  (1040) 
557.5346914163637

>  <distance_score>  (1040) 
7.740795750603428

>  <path>  (1040) 
/opt/xchem-fragalysis-2/maxwin/BulkDock/SCRATCH/511023/C46999-P123/C46999-P123.minimised.mol

>  <scratch_subdir>  (1040) 
/opt/xchem-fragalysis-2/maxwin/BulkDock/SCRATCH/511023/C46999-P123

>  <fragmenstein_runtime>  (1040) 
7.817527770996094

>  <fragmenstein_outcome>  (1040) 
too moved

>  <fragmenstein_mode>  (1040) 
expansion

>  <fragmenstein_error>  (1040) 


$$$$
C30247-P40
     RDKit          3D

 40 42  0  0  0  0  0  0  0  0999 V2000
   -6.5071   -9.7900   30.0505 C   0  0  0  0  0  0  0  0  0  0  0  0
   -5.3273   -9.7792   31.6775 C   0  0  0  0  0  0  0  0  0  0  0  0
   -5.9967  -11.6601   32.3045 C   0  0  0  0  0  0  0  0  0  0  0  0
   -6.8704  -13.1958   32.1705 N   0  0  0  0  0  0  0  0  0  0  0  0
   -8.5225  -13.7511   32.8187 C   0  0  0  0  0  0  0  0  0  0  0  0
   -9.0577  -12.8970   33.3030 O   0  0  0  0  0  0  0  0  0  0  0  0
   -9.4938  -15.2707   33.0610 C   0  0  0  0  0  0  0  0  0  0  0  0
  -10.8759  -15.2299   33.5159 C   0  0  0  0  0  0  0  0  0  0  0  0
  -11.1566  -16.1022   34.5728 C   0  0  0  0  0  0  0  0  0  0  0  0
  -10.0468  -16.8639   34.5650 N   0  0  0  0  0  0  0  0  0  0  0  0
   -9.2942  -16.5893   33.4892 N   0  0  0  0  0  0  0  0  0  0  0  0
   -3.7842   -8.8075   32.2727 N   0  0  0  0  0  0  0  0  0  0  0  0
   -2.7662   -8.0386   31.5345 C   0  0  0  0  0  0  0  0  0  0  0  0
   -2.6920   -7.7567   30.3701 O   0  0  0  0  0  0  0  0  0  0  0  0
   -1.5424   -7.5099   32.2733 C   0  0  0  0  0  0  0  0  0  0  0  0
   -1.3276   -7.4255   33.6425 C   0  0  0  0  0  0  0  0  0  0  0  0
   -0.2529   -6.6706   34.1616 C   0  0  0  0  0  0  0  0  0  0  0  0
    0.5902   -5.9869   33.2711 C   0  0  0  0  0  0  0  0  0  0  0  0
    1.6377   -5.1214   33.4923 N   0  0  0  0  0  0  0  0  0  0  0  0
    2.1395   -4.6656   32.2985 C   0  0  0  0  0  0  0  0  0  0  0  0
    1.4160   -5.2481   31.2861 C   0  0  0  0  0  0  0  0  0  0  0  0
    0.4399   -6.0780   31.8963 C   0  0  0  0  0  0  0  0  0  0  0  0
   -0.6001   -6.8752   31.4088 C   0  0  0  0  0  0  0  0  0  0  0  0
   -6.1838  -10.6771   29.5678 H   0  0  0  0  0  0  0  0  0  0  0  0
   -6.3649   -9.0627   29.2280 H   0  0  0  0  0  0  0  0  0  0  0  0
   -7.5335  -10.1001   30.1237 H   0  0  0  0  0  0  0  0  0  0  0  0
   -5.5053   -9.6633   32.8756 H   0  0  0  0  0  0  0  0  0  0  0  0
   -6.7173  -11.3625   33.0550 H   0  0  0  0  0  0  0  0  0  0  0  0
   -5.2859  -12.0450   32.9844 H   0  0  0  0  0  0  0  0  0  0  0  0
   -6.4569  -13.9805   31.6618 H   0  0  0  0  0  0  0  0  0  0  0  0
  -11.7028  -14.8823   32.9117 H   0  0  0  0  0  0  0  0  0  0  0  0
  -12.0498  -16.3739   35.1126 H   0  0  0  0  0  0  0  0  0  0  0  0
   -9.8452  -17.6931   35.1115 H   0  0  0  0  0  0  0  0  0  0  0  0
   -3.4835   -8.9216   33.2308 H   0  0  0  0  0  0  0  0  0  0  0  0
   -2.0013   -7.8884   34.3575 H   0  0  0  0  0  0  0  0  0  0  0  0
   -0.1299   -6.5777   35.2380 H   0  0  0  0  0  0  0  0  0  0  0  0
    1.9556   -4.8294   34.4069 H   0  0  0  0  0  0  0  0  0  0  0  0
    2.9546   -3.9539   32.2793 H   0  0  0  0  0  0  0  0  0  0  0  0
    1.5531   -5.0689   30.2279 H   0  0  0  0  0  0  0  0  0  0  0  0
   -0.7128   -6.9087   30.3290 H   0  0  0  0  0  0  0  0  0  0  0  0
  1  2  1  0
  2  3  1  0
  3  4  1  0
  4  5  1  0
  5  6  2  0
  5  7  1  0
  7  8  1  0
  8  9  2  0
  9 10  1  0
 10 11  1  0
  2 12  1  0
 12 13  1  0
 13 14  2  0
 13 15  1  0
 15 16  2  0
 16 17  1  0
 17 18  2  0
 18 19  1  0
 19 20  1  0
 20 21  2  0
 21 22  1  0
 22 23  2  0
 11  7  2  0
 23 15  1  0
 22 18  1  0
  1 24  1  0
  1 25  1  0
  1 26  1  0
  2 27  1  0
  3 28  1  0
  3 29  1  0
  4 30  1  0
  8 31  1  0
  9 32  1  0
 10 33  1  0
 12 34  1  0
 16 35  1  0
 17 36  1  0
 19 37  1  0
 20 38  1  0
 21 39  1  0
 23 40  1  0
M  END
>  <Energy>  (1041) 
593.98753429861813

>  <compound_id>  (1041) 
30247

>  <target_id>  (1041) 
1

>  <reference_id>  (1041) 
40

>  <inspiration_ids>  (1041) 
[40, 123]

>  <energy_score>  (1041) 
515.7328456981197

>  <distance_score>  (1041) 
6.114814643001167

>  <path>  (1041) 
/opt/xchem-fragalysis-2/maxwin/BulkDock/SCRATCH/511023/C30247-P40/C30247-P40.minimised.mol

>  <scratch_subdir>  (1041) 
/opt/xchem-fragalysis-2/maxwin/BulkDock/SCRATCH/511023/C30247-P40

>  <fragmenstein_runtime>  (1041) 
15.675021409988403

>  <fragmenstein_outcome>  (1041) 
too moved

>  <fragmenstein_mode>  (1041) 
expansion

>  <fragmenstein_error>  (1041) 


$$$$
C30247-P123
     RDKit          3D

 40 42  0  0  0  0  0  0  0  0999 V2000
   -8.7688  -12.3082   33.1296 C   0  0  0  0  0  0  0  0  0  0  0  0
   -7.4723  -13.4827   32.3937 C   0  0  0  0  0  0  0  0  0  0  0  0
   -7.6099  -15.3770   33.1346 C   0  0  0  0  0  0  0  0  0  0  0  0
   -8.8401  -16.1846   33.8390 N   0  0  0  0  0  0  0  0  0  0  0  0
   -8.9721  -16.7433   35.1986 C   0  0  0  0  0  0  0  0  0  0  0  0
   -8.1752  -16.8127   36.0913 O   0  0  0  0  0  0  0  0  0  0  0  0
  -10.3859  -17.2525   35.6848 C   0  0  0  0  0  0  0  0  0  0  0  0
  -11.5155  -17.9308   35.1257 C   0  0  0  0  0  0  0  0  0  0  0  0
  -12.4543  -18.1375   36.1045 C   0  0  0  0  0  0  0  0  0  0  0  0
  -11.8608  -17.6932   37.2247 N   0  0  0  0  0  0  0  0  0  0  0  0
  -10.6729  -17.1122   37.0196 N   0  0  0  0  0  0  0  0  0  0  0  0
   -6.3926  -11.8477   32.1883 N   0  0  0  0  0  0  0  0  0  0  0  0
   -5.3195  -11.5212   31.3219 C   0  0  0  0  0  0  0  0  0  0  0  0
   -4.8513  -12.1230   30.3957 O   0  0  0  0  0  0  0  0  0  0  0  0
   -4.6252   -9.8510   32.1369 C   0  0  0  0  0  0  0  0  0  0  0  0
   -4.7718   -9.3089   33.4376 C   0  0  0  0  0  0  0  0  0  0  0  0
   -3.7425   -8.7342   34.3113 C   0  0  0  0  0  0  0  0  0  0  0  0
   -2.5895   -8.2616   33.6985 C   0  0  0  0  0  0  0  0  0  0  0  0
   -1.6334   -7.3632   34.1000 N   0  0  0  0  0  0  0  0  0  0  0  0
   -0.8350   -7.0561   33.0293 C   0  0  0  0  0  0  0  0  0  0  0  0
   -1.1758   -7.8905   31.9883 C   0  0  0  0  0  0  0  0  0  0  0  0
   -2.3303   -8.6055   32.3920 C   0  0  0  0  0  0  0  0  0  0  0  0
   -3.2028   -9.5807   31.8402 C   0  0  0  0  0  0  0  0  0  0  0  0
   -8.8427  -11.4131   32.4804 H   0  0  0  0  0  0  0  0  0  0  0  0
   -8.5569  -11.8008   34.0685 H   0  0  0  0  0  0  0  0  0  0  0  0
   -9.5665  -13.0142   33.0430 H   0  0  0  0  0  0  0  0  0  0  0  0
   -7.2858  -13.5826   33.4471 H   0  0  0  0  0  0  0  0  0  0  0  0
   -7.0659  -15.2611   34.1047 H   0  0  0  0  0  0  0  0  0  0  0  0
   -6.8214  -16.1141   32.8762 H   0  0  0  0  0  0  0  0  0  0  0  0
   -9.7407  -16.2182   33.3786 H   0  0  0  0  0  0  0  0  0  0  0  0
  -11.6369  -18.4313   34.1905 H   0  0  0  0  0  0  0  0  0  0  0  0
  -13.4046  -18.6508   36.1021 H   0  0  0  0  0  0  0  0  0  0  0  0
  -12.2019  -17.7650   38.1764 H   0  0  0  0  0  0  0  0  0  0  0  0
   -6.5605  -11.0741   32.7966 H   0  0  0  0  0  0  0  0  0  0  0  0
   -5.6373   -9.5217   34.0080 H   0  0  0  0  0  0  0  0  0  0  0  0
   -3.9763   -8.5142   35.3487 H   0  0  0  0  0  0  0  0  0  0  0  0
   -1.6244   -6.8949   34.9990 H   0  0  0  0  0  0  0  0  0  0  0  0
   -0.0551   -6.3116   33.1227 H   0  0  0  0  0  0  0  0  0  0  0  0
   -0.6687   -7.9171   31.0324 H   0  0  0  0  0  0  0  0  0  0  0  0
   -2.6948  -10.2713   31.1641 H   0  0  0  0  0  0  0  0  0  0  0  0
  1  2  1  0
  2  3  1  0
  3  4  1  0
  4  5  1  0
  5  6  2  0
  5  7  1  0
  7  8  1  0
  8  9  2  0
  9 10  1  0
 10 11  1  0
  2 12  1  0
 12 13  1  0
 13 14  2  0
 13 15  1  0
 15 16  2  0
 16 17  1  0
 17 18  2  0
 18 19  1  0
 19 20  1  0
 20 21  2  0
 21 22  1  0
 22 23  2  0
 11  7  2  0
 23 15  1  0
 22 18  1  0
  1 24  1  0
  1 25  1  0
  1 26  1  0
  2 27  1  0
  3 28  1  0
  3 29  1  0
  4 30  1  0
  8 31  1  0
  9 32  1  0
 10 33  1  0
 12 34  1  0
 16 35  1  0
 17 36  1  0
 19 37  1  0
 20 38  1  0
 21 39  1  0
 23 40  1  0
M  END
>  <Energy>  (1042) 
445.44469763756433

>  <compound_id>  (1042) 
30247

>  <target_id>  (1042) 
1

>  <reference_id>  (1042) 
123

>  <inspiration_ids>  (1042) 
[40, 123]

>  <energy_score>  (1042) 
367.1900090370683

>  <distance_score>  (1042) 
7.0283819788217965

>  <path>  (1042) 
/opt/xchem-fragalysis-2/maxwin/BulkDock/SCRATCH/511023/C30247-P123/C30247-P123.minimised.mol

>  <scratch_subdir>  (1042) 
/opt/xchem-fragalysis-2/maxwin/BulkDock/SCRATCH/511023/C30247-P123

>  <fragmenstein_runtime>  (1042) 
24.22231936454773

>  <fragmenstein_outcome>  (1042) 
too moved

>  <fragmenstein_mode>  (1042) 
expansion

>  <fragmenstein_error>  (1042) 


$$$$
C30248-P40
     RDKit          3D

 40 42  0  0  0  0  0  0  0  0999 V2000
   -9.6650  -17.1604   35.9744 C   0  0  0  0  0  0  0  0  0  0  0  0
  -11.0578  -17.3189   35.4170 C   0  0  0  0  0  0  0  0  0  0  0  0
  -11.8777  -15.9254   35.3313 C   0  0  0  0  0  0  0  0  0  0  0  0
  -11.2907  -14.5585   35.1978 N   0  0  0  0  0  0  0  0  0  0  0  0
  -11.7856  -13.2535   35.6496 C   0  0  0  0  0  0  0  0  0  0  0  0
  -12.7474  -12.9677   36.3094 O   0  0  0  0  0  0  0  0  0  0  0  0
  -11.0027  -12.0012   35.2263 C   0  0  0  0  0  0  0  0  0  0  0  0
  -10.1517  -11.3297   36.1256 C   0  0  0  0  0  0  0  0  0  0  0  0
   -9.4855  -10.1243   35.7961 C   0  0  0  0  0  0  0  0  0  0  0  0
   -9.7635   -9.5448   34.5525 C   0  0  0  0  0  0  0  0  0  0  0  0
   -9.3655   -8.3422   34.0057 N   0  0  0  0  0  0  0  0  0  0  0  0
   -9.9269   -8.1658   32.7692 C   0  0  0  0  0  0  0  0  0  0  0  0
  -10.6881   -9.2823   32.5017 C   0  0  0  0  0  0  0  0  0  0  0  0
  -10.6269  -10.1442   33.6382 C   0  0  0  0  0  0  0  0  0  0  0  0
  -11.2693  -11.3612   34.0047 C   0  0  0  0  0  0  0  0  0  0  0  0
  -11.1477  -18.1815   34.1983 N   0  0  0  0  0  0  0  0  0  0  0  0
  -10.0023  -19.0538   33.3941 C   0  0  0  0  0  0  0  0  0  0  0  0
   -8.8683  -19.1902   33.7517 O   0  0  0  0  0  0  0  0  0  0  0  0
  -10.7071  -20.0110   31.8058 C   0  0  0  0  0  0  0  0  0  0  0  0
  -12.1966  -20.8536   31.2035 C   0  0  0  0  0  0  0  0  0  0  0  0
  -12.3062  -21.1746   29.8941 C   0  0  0  0  0  0  0  0  0  0  0  0
  -11.0191  -21.2593   29.7817 N   0  0  0  0  0  0  0  0  0  0  0  0
  -10.4624  -21.1594   31.0245 N   0  0  0  0  0  0  0  0  0  0  0  0
   -9.0231  -16.6933   35.2377 H   0  0  0  0  0  0  0  0  0  0  0  0
   -9.2299  -18.1319   36.2307 H   0  0  0  0  0  0  0  0  0  0  0  0
   -9.6661  -16.5453   36.8795 H   0  0  0  0  0  0  0  0  0  0  0  0
  -11.6246  -17.9160   36.1443 H   0  0  0  0  0  0  0  0  0  0  0  0
  -12.4543  -15.8631   36.2641 H   0  0  0  0  0  0  0  0  0  0  0  0
  -12.6310  -16.0011   34.5391 H   0  0  0  0  0  0  0  0  0  0  0  0
  -10.3931  -14.4300   34.7222 H   0  0  0  0  0  0  0  0  0  0  0  0
  -10.0150  -11.7437   37.1235 H   0  0  0  0  0  0  0  0  0  0  0  0
   -8.8394   -9.6377   36.5176 H   0  0  0  0  0  0  0  0  0  0  0  0
   -8.7298   -7.7003   34.4513 H   0  0  0  0  0  0  0  0  0  0  0  0
   -9.7225   -7.2830   32.1787 H   0  0  0  0  0  0  0  0  0  0  0  0
  -11.2579   -9.4522   31.5970 H   0  0  0  0  0  0  0  0  0  0  0  0
  -12.0447  -11.7624   33.3596 H   0  0  0  0  0  0  0  0  0  0  0  0
  -11.9824  -18.1601   33.6460 H   0  0  0  0  0  0  0  0  0  0  0  0
  -12.9318  -20.9299   31.9526 H   0  0  0  0  0  0  0  0  0  0  0  0
  -12.9903  -21.4960   29.1648 H   0  0  0  0  0  0  0  0  0  0  0  0
  -10.5553  -21.7248   29.0099 H   0  0  0  0  0  0  0  0  0  0  0  0
  1  2  1  0
  2  3  1  0
  3  4  1  0
  4  5  1  0
  5  6  2  0
  5  7  1  0
  7  8  2  0
  8  9  1  0
  9 10  2  0
 10 11  1  0
 11 12  1  0
 12 13  2  0
 13 14  1  0
 14 15  2  0
  2 16  1  0
 16 17  1  0
 17 18  2  0
 17 19  1  0
 19 20  1  0
 20 21  2  0
 21 22  1  0
 22 23  1  0
 15  7  1  0
 23 19  2  0
 14 10  1  0
  1 24  1  0
  1 25  1  0
  1 26  1  0
  2 27  1  0
  3 28  1  0
  3 29  1  0
  4 30  1  0
  8 31  1  0
  9 32  1  0
 11 33  1  0
 12 34  1  0
 13 35  1  0
 15 36  1  0
 16 37  1  0
 20 38  1  0
 21 39  1  0
 22 40  1  0
M  END
>  <Energy>  (1043) 
328.00808933443591

>  <compound_id>  (1043) 
30248

>  <target_id>  (1043) 
1

>  <reference_id>  (1043) 
40

>  <inspiration_ids>  (1043) 
[40, 123]

>  <energy_score>  (1043) 
254.7091501700521

>  <distance_score>  (1043) 
11.078222263399958

>  <path>  (1043) 
/opt/xchem-fragalysis-2/maxwin/BulkDock/SCRATCH/511023/C30248-P40/C30248-P40.minimised.mol

>  <scratch_subdir>  (1043) 
/opt/xchem-fragalysis-2/maxwin/BulkDock/SCRATCH/511023/C30248-P40

>  <fragmenstein_runtime>  (1043) 
27.320972681045532

>  <fragmenstein_outcome>  (1043) 
too moved

>  <fragmenstein_mode>  (1043) 
expansion

>  <fragmenstein_error>  (1043) 


$$$$
C30248-P123
     RDKit          3D

 40 42  0  0  0  0  0  0  0  0999 V2000
   -5.5649  -16.1773   29.7990 C   0  0  0  0  0  0  0  0  0  0  0  0
   -5.9542  -15.2287   30.8892 C   0  0  0  0  0  0  0  0  0  0  0  0
   -5.7465  -13.5063   30.3012 C   0  0  0  0  0  0  0  0  0  0  0  0
   -4.9318  -12.2051   30.7543 N   0  0  0  0  0  0  0  0  0  0  0  0
   -3.6086  -11.7081   30.3545 C   0  0  0  0  0  0  0  0  0  0  0  0
   -2.8582  -12.1064   29.5362 O   0  0  0  0  0  0  0  0  0  0  0  0
   -2.8489  -10.2993   31.3362 C   0  0  0  0  0  0  0  0  0  0  0  0
   -3.4337   -9.4555   32.3253 C   0  0  0  0  0  0  0  0  0  0  0  0
   -2.6840   -8.5628   33.1245 C   0  0  0  0  0  0  0  0  0  0  0  0
   -1.6881   -7.9210   32.4291 C   0  0  0  0  0  0  0  0  0  0  0  0
   -1.0566   -6.7149   32.6260 N   0  0  0  0  0  0  0  0  0  0  0  0
   -0.4564   -6.3379   31.4524 C   0  0  0  0  0  0  0  0  0  0  0  0
   -0.5488   -7.4052   30.5896 C   0  0  0  0  0  0  0  0  0  0  0  0
   -1.1973   -8.4737   31.2663 C   0  0  0  0  0  0  0  0  0  0  0  0
   -1.5768   -9.8520   30.9351 C   0  0  0  0  0  0  0  0  0  0  0  0
   -6.1563  -16.1373   32.4827 N   0  0  0  0  0  0  0  0  0  0  0  0
   -7.4013  -16.3492   33.3539 C   0  0  0  0  0  0  0  0  0  0  0  0
   -8.5417  -16.0398   33.1559 O   0  0  0  0  0  0  0  0  0  0  0  0
   -7.2869  -17.0062   34.6706 C   0  0  0  0  0  0  0  0  0  0  0  0
   -7.3198  -16.2639   35.9177 C   0  0  0  0  0  0  0  0  0  0  0  0
   -8.4243  -16.6808   36.6172 C   0  0  0  0  0  0  0  0  0  0  0  0
   -9.0039  -17.5171   35.7338 N   0  0  0  0  0  0  0  0  0  0  0  0
   -8.1165  -18.0520   34.8699 N   0  0  0  0  0  0  0  0  0  0  0  0
   -4.5059  -16.2473   29.5832 H   0  0  0  0  0  0  0  0  0  0  0  0
   -6.1262  -15.7855   28.9738 H   0  0  0  0  0  0  0  0  0  0  0  0
   -5.8033  -17.2084   29.8507 H   0  0  0  0  0  0  0  0  0  0  0  0
   -6.9130  -14.7458   31.1385 H   0  0  0  0  0  0  0  0  0  0  0  0
   -6.3106  -13.4595   29.3832 H   0  0  0  0  0  0  0  0  0  0  0  0
   -6.4979  -13.2177   31.0368 H   0  0  0  0  0  0  0  0  0  0  0  0
   -5.3314  -11.5750   31.4300 H   0  0  0  0  0  0  0  0  0  0  0  0
   -4.4889   -9.5643   32.5848 H   0  0  0  0  0  0  0  0  0  0  0  0
   -3.0470   -8.1935   34.0760 H   0  0  0  0  0  0  0  0  0  0  0  0
   -1.1794   -6.1168   33.4340 H   0  0  0  0  0  0  0  0  0  0  0  0
   -0.0122   -5.3581   31.3428 H   0  0  0  0  0  0  0  0  0  0  0  0
   -0.2088   -7.4028   29.5648 H   0  0  0  0  0  0  0  0  0  0  0  0
   -1.0903  -10.3439   30.0872 H   0  0  0  0  0  0  0  0  0  0  0  0
   -5.3713  -16.5929   32.9102 H   0  0  0  0  0  0  0  0  0  0  0  0
   -6.7428  -15.4021   36.1866 H   0  0  0  0  0  0  0  0  0  0  0  0
   -8.9043  -16.3330   37.5176 H   0  0  0  0  0  0  0  0  0  0  0  0
   -9.9749  -17.8004   35.6979 H   0  0  0  0  0  0  0  0  0  0  0  0
  1  2  1  0
  2  3  1  0
  3  4  1  0
  4  5  1  0
  5  6  2  0
  5  7  1  0
  7  8  2  0
  8  9  1  0
  9 10  2  0
 10 11  1  0
 11 12  1  0
 12 13  2  0
 13 14  1  0
 14 15  2  0
  2 16  1  0
 16 17  1  0
 17 18  2  0
 17 19  1  0
 19 20  1  0
 20 21  2  0
 21 22  1  0
 22 23  1  0
 15  7  1  0
 23 19  2  0
 14 10  1  0
  1 24  1  0
  1 25  1  0
  1 26  1  0
  2 27  1  0
  3 28  1  0
  3 29  1  0
  4 30  1  0
  8 31  1  0
  9 32  1  0
 11 33  1  0
 12 34  1  0
 13 35  1  0
 15 36  1  0
 16 37  1  0
 20 38  1  0
 21 39  1  0
 22 40  1  0
M  END
>  <Energy>  (1044) 
334.06142166062222

>  <compound_id>  (1044) 
30248

>  <target_id>  (1044) 
1

>  <reference_id>  (1044) 
123

>  <inspiration_ids>  (1044) 
[40, 123]

>  <energy_score>  (1044) 
260.7624824962433

>  <distance_score>  (1044) 
7.04097100762765

>  <path>  (1044) 
/opt/xchem-fragalysis-2/maxwin/BulkDock/SCRATCH/511023/C30248-P123/C30248-P123.minimised.mol

>  <scratch_subdir>  (1044) 
/opt/xchem-fragalysis-2/maxwin/BulkDock/SCRATCH/511023/C30248-P123

>  <fragmenstein_runtime>  (1044) 
17.611388206481934

>  <fragmenstein_outcome>  (1044) 
too moved

>  <fragmenstein_mode>  (1044) 
expansion

>  <fragmenstein_error>  (1044) 


$$$$
C30249-P40
     RDKit          3D

 41 43  0  0  0  0  0  0  0  0999 V2000
   -2.8743   -9.4499   33.1414 O   0  0  0  0  0  0  0  0  0  0  0  0
   -3.5246   -8.9006   32.2997 C   0  0  0  0  0  0  0  0  0  0  0  0
   -5.1884   -9.7528   31.7101 N   0  0  0  0  0  0  0  0  0  0  0  0
   -6.0200  -11.6636   32.1784 C   0  0  0  0  0  0  0  0  0  0  0  0
   -6.3126  -13.7480   31.6660 C   0  0  0  0  0  0  0  0  0  0  0  0
   -5.7897  -14.1042   30.3364 C   0  0  0  0  0  0  0  0  0  0  0  0
   -4.5735  -14.9858   30.6059 O   0  0  0  0  0  0  0  0  0  0  0  0
   -5.9114  -15.7114   31.9531 N   0  0  0  0  0  0  0  0  0  0  0  0
   -6.9959  -17.1896   32.5787 C   0  0  0  0  0  0  0  0  0  0  0  0
   -8.1141  -16.9098   32.7520 O   0  0  0  0  0  0  0  0  0  0  0  0
   -6.7432  -18.9020   33.0825 C   0  0  0  0  0  0  0  0  0  0  0  0
   -7.8089  -19.4290   34.0935 C   0  0  0  0  0  0  0  0  0  0  0  0
   -7.3760  -20.6181   34.6124 C   0  0  0  0  0  0  0  0  0  0  0  0
   -6.2581  -20.8952   33.9127 N   0  0  0  0  0  0  0  0  0  0  0  0
   -5.8297  -19.9248   33.0820 N   0  0  0  0  0  0  0  0  0  0  0  0
   -2.6916   -7.6367   31.7730 C   0  0  0  0  0  0  0  0  0  0  0  0
   -1.5668   -8.0303   30.9995 C   0  0  0  0  0  0  0  0  0  0  0  0
   -0.5465   -7.2462   30.4001 C   0  0  0  0  0  0  0  0  0  0  0  0
   -0.3093   -6.0387   31.0286 C   0  0  0  0  0  0  0  0  0  0  0  0
    0.5979   -4.9682   30.8630 C   0  0  0  0  0  0  0  0  0  0  0  0
    0.4951   -4.1814   31.9875 C   0  0  0  0  0  0  0  0  0  0  0  0
   -0.3979   -4.7744   32.8484 N   0  0  0  0  0  0  0  0  0  0  0  0
   -0.9521   -5.8781   32.2488 C   0  0  0  0  0  0  0  0  0  0  0  0
   -1.9180   -6.8356   32.6941 C   0  0  0  0  0  0  0  0  0  0  0  0
   -5.6775   -9.1072   31.0442 H   0  0  0  0  0  0  0  0  0  0  0  0
   -7.0169  -11.5763   32.6429 H   0  0  0  0  0  0  0  0  0  0  0  0
   -5.4633  -11.8700   33.0516 H   0  0  0  0  0  0  0  0  0  0  0  0
   -7.3412  -13.9726   31.6936 H   0  0  0  0  0  0  0  0  0  0  0  0
   -5.5697  -13.2551   29.7493 H   0  0  0  0  0  0  0  0  0  0  0  0
   -6.3682  -14.5953   29.5966 H   0  0  0  0  0  0  0  0  0  0  0  0
   -4.8837  -15.8526   30.2625 H   0  0  0  0  0  0  0  0  0  0  0  0
   -4.9507  -16.0195   31.9114 H   0  0  0  0  0  0  0  0  0  0  0  0
   -8.7084  -18.8833   34.3568 H   0  0  0  0  0  0  0  0  0  0  0  0
   -7.7706  -21.2864   35.3602 H   0  0  0  0  0  0  0  0  0  0  0  0
   -5.6779  -21.7205   34.0074 H   0  0  0  0  0  0  0  0  0  0  0  0
   -1.2984   -9.1046   31.0146 H   0  0  0  0  0  0  0  0  0  0  0  0
    0.1549   -7.6623   29.6891 H   0  0  0  0  0  0  0  0  0  0  0  0
    1.2738   -4.7961   30.0360 H   0  0  0  0  0  0  0  0  0  0  0  0
    1.0027   -3.2683   32.2706 H   0  0  0  0  0  0  0  0  0  0  0  0
   -0.6734   -4.4139   33.7548 H   0  0  0  0  0  0  0  0  0  0  0  0
   -2.0974   -6.8905   33.7681 H   0  0  0  0  0  0  0  0  0  0  0  0
  1  2  2  0
  2  3  1  0
  3  4  1  0
  4  5  1  0
  5  6  1  0
  6  7  1  0
  5  8  1  0
  8  9  1  0
  9 10  2  0
  9 11  1  0
 11 12  1  0
 12 13  2  0
 13 14  1  0
 14 15  1  0
  2 16  1  0
 16 17  2  0
 17 18  1  0
 18 19  2  0
 19 20  1  0
 20 21  2  0
 21 22  1  0
 22 23  1  0
 23 24  2  0
 15 11  2  0
 24 16  1  0
 23 19  1  0
  3 25  1  0
  4 26  1  0
  4 27  1  0
  5 28  1  0
  6 29  1  0
  6 30  1  0
  7 31  1  0
  8 32  1  0
 12 33  1  0
 13 34  1  0
 14 35  1  0
 17 36  1  0
 18 37  1  0
 20 38  1  0
 21 39  1  0
 22 40  1  0
 24 41  1  0
M  END
>  <Energy>  (1045) 
873.64326154588196

>  <compound_id>  (1045) 
30249

>  <target_id>  (1045) 
1

>  <reference_id>  (1045) 
40

>  <inspiration_ids>  (1045) 
[40, 123]

>  <energy_score>  (1045) 
766.6859960583691

>  <distance_score>  (1045) 
5.238440845908693

>  <path>  (1045) 
/opt/xchem-fragalysis-2/maxwin/BulkDock/SCRATCH/511023/C30249-P40/C30249-P40.minimised.mol

>  <scratch_subdir>  (1045) 
/opt/xchem-fragalysis-2/maxwin/BulkDock/SCRATCH/511023/C30249-P40

>  <fragmenstein_runtime>  (1045) 
19.068055152893066

>  <fragmenstein_outcome>  (1045) 
too moved

>  <fragmenstein_mode>  (1045) 
expansion

>  <fragmenstein_error>  (1045) 


$$$$
C30249-P123
     RDKit          3D

 41 43  0  0  0  0  0  0  0  0999 V2000
   -2.9152  -12.3133   29.1327 O   0  0  0  0  0  0  0  0  0  0  0  0
   -3.4634  -11.8693   30.0506 C   0  0  0  0  0  0  0  0  0  0  0  0
   -4.7417  -12.2583   30.6396 N   0  0  0  0  0  0  0  0  0  0  0  0
   -5.7258  -13.4602   30.2997 C   0  0  0  0  0  0  0  0  0  0  0  0
   -5.8912  -15.1989   30.7628 C   0  0  0  0  0  0  0  0  0  0  0  0
   -5.4678  -16.1835   29.7224 C   0  0  0  0  0  0  0  0  0  0  0  0
   -4.0020  -16.1894   29.5224 O   0  0  0  0  0  0  0  0  0  0  0  0
   -6.0334  -16.1155   32.3180 N   0  0  0  0  0  0  0  0  0  0  0  0
   -7.1770  -16.2618   33.2436 C   0  0  0  0  0  0  0  0  0  0  0  0
   -8.3004  -15.8759   33.1467 O   0  0  0  0  0  0  0  0  0  0  0  0
   -7.0384  -17.0653   34.4266 C   0  0  0  0  0  0  0  0  0  0  0  0
   -7.8424  -16.8047   35.5784 C   0  0  0  0  0  0  0  0  0  0  0  0
   -8.9317  -17.5876   35.2704 C   0  0  0  0  0  0  0  0  0  0  0  0
   -8.4550  -18.4266   34.2881 N   0  0  0  0  0  0  0  0  0  0  0  0
   -7.1609  -18.3705   34.2170 N   0  0  0  0  0  0  0  0  0  0  0  0
   -2.3887  -10.5895   30.8582 C   0  0  0  0  0  0  0  0  0  0  0  0
   -1.2168  -10.2696   30.0738 C   0  0  0  0  0  0  0  0  0  0  0  0
   -0.6042   -8.9814   30.0306 C   0  0  0  0  0  0  0  0  0  0  0  0
   -0.8811   -8.0380   31.0295 C   0  0  0  0  0  0  0  0  0  0  0  0
   -0.4607   -6.7108   31.2790 C   0  0  0  0  0  0  0  0  0  0  0  0
   -1.0441   -6.3255   32.4582 C   0  0  0  0  0  0  0  0  0  0  0  0
   -1.8009   -7.3742   32.9153 N   0  0  0  0  0  0  0  0  0  0  0  0
   -1.8257   -8.3986   31.9961 C   0  0  0  0  0  0  0  0  0  0  0  0
   -2.6460   -9.5861   31.8885 C   0  0  0  0  0  0  0  0  0  0  0  0
   -4.9696  -11.6202   31.3739 H   0  0  0  0  0  0  0  0  0  0  0  0
   -6.4263  -13.1506   31.0788 H   0  0  0  0  0  0  0  0  0  0  0  0
   -6.2806  -13.3969   29.3807 H   0  0  0  0  0  0  0  0  0  0  0  0
   -6.8395  -14.7421   31.0470 H   0  0  0  0  0  0  0  0  0  0  0  0
   -6.0562  -15.7665   28.9292 H   0  0  0  0  0  0  0  0  0  0  0  0
   -5.7486  -17.2040   29.7614 H   0  0  0  0  0  0  0  0  0  0  0  0
   -3.7699  -16.2869   28.5814 H   0  0  0  0  0  0  0  0  0  0  0  0
   -5.2479  -16.6380   32.6776 H   0  0  0  0  0  0  0  0  0  0  0  0
   -7.9689  -15.8708   36.0883 H   0  0  0  0  0  0  0  0  0  0  0  0
   -9.9770  -17.5091   35.5338 H   0  0  0  0  0  0  0  0  0  0  0  0
   -8.8932  -19.0457   33.6120 H   0  0  0  0  0  0  0  0  0  0  0  0
   -0.9717  -10.8008   29.1836 H   0  0  0  0  0  0  0  0  0  0  0  0
   -0.0556   -8.7375   29.1308 H   0  0  0  0  0  0  0  0  0  0  0  0
    0.2457   -6.1315   30.7004 H   0  0  0  0  0  0  0  0  0  0  0  0
   -0.9486   -5.4202   33.0437 H   0  0  0  0  0  0  0  0  0  0  0  0
   -2.2806   -7.3834   33.8032 H   0  0  0  0  0  0  0  0  0  0  0  0
   -3.5615   -9.5717   32.4610 H   0  0  0  0  0  0  0  0  0  0  0  0
  1  2  2  0
  2  3  1  0
  3  4  1  0
  4  5  1  0
  5  6  1  0
  6  7  1  0
  5  8  1  0
  8  9  1  0
  9 10  2  0
  9 11  1  0
 11 12  1  0
 12 13  2  0
 13 14  1  0
 14 15  1  0
  2 16  1  0
 16 17  2  0
 17 18  1  0
 18 19  2  0
 19 20  1  0
 20 21  2  0
 21 22  1  0
 22 23  1  0
 23 24  2  0
 15 11  2  0
 24 16  1  0
 23 19  1  0
  3 25  1  0
  4 26  1  0
  4 27  1  0
  5 28  1  0
  6 29  1  0
  6 30  1  0
  7 31  1  0
  8 32  1  0
 12 33  1  0
 13 34  1  0
 14 35  1  0
 17 36  1  0
 18 37  1  0
 20 38  1  0
 21 39  1  0
 22 40  1  0
 24 41  1  0
M  END
>  <Energy>  (1046) 
349.98063469679784

>  <compound_id>  (1046) 
30249

>  <target_id>  (1046) 
1

>  <reference_id>  (1046) 
123

>  <inspiration_ids>  (1046) 
[40, 123]

>  <energy_score>  (1046) 
243.02336920930196

>  <distance_score>  (1046) 
6.795162153553409

>  <path>  (1046) 
/opt/xchem-fragalysis-2/maxwin/BulkDock/SCRATCH/511023/C30249-P123/C30249-P123.minimised.mol

>  <scratch_subdir>  (1046) 
/opt/xchem-fragalysis-2/maxwin/BulkDock/SCRATCH/511023/C30249-P123

>  <fragmenstein_runtime>  (1046) 
15.16015100479126

>  <fragmenstein_outcome>  (1046) 
too moved

>  <fragmenstein_mode>  (1046) 
expansion

>  <fragmenstein_error>  (1046) 


$$$$
C30250-P40
     RDKit          3D

 43 45  0  0  0  0  0  0  0  0999 V2000
   -4.1944  -15.8337   31.4102 C   0  0  0  0  0  0  0  0  0  0  0  0
   -5.7470  -16.0408   31.4884 C   0  0  0  0  0  0  0  0  0  0  0  0
   -6.3069  -14.3365   30.9548 C   0  0  0  0  0  0  0  0  0  0  0  0
   -6.3725  -13.5611   29.4274 C   0  0  0  0  0  0  0  0  0  0  0  0
   -5.5854  -11.7335   29.1870 N   0  0  0  0  0  0  0  0  0  0  0  0
   -6.3767   -9.9931   29.4960 C   0  0  0  0  0  0  0  0  0  0  0  0
   -7.5400   -9.7379   29.8034 O   0  0  0  0  0  0  0  0  0  0  0  0
   -5.2770   -8.2981   29.5317 C   0  0  0  0  0  0  0  0  0  0  0  0
   -4.5312   -8.6474   31.2536 C   0  0  0  0  0  0  0  0  0  0  0  0
   -3.2572   -8.5993   32.1121 C   0  0  0  0  0  0  0  0  0  0  0  0
   -2.1372   -7.9646   31.8113 C   0  0  0  0  0  0  0  0  0  0  0  0
   -2.2716   -7.4034   30.5844 C   0  0  0  0  0  0  0  0  0  0  0  0
   -1.1472   -6.8200   30.0543 N   0  0  0  0  0  0  0  0  0  0  0  0
   -1.1195   -7.5014   28.9123 C   0  0  0  0  0  0  0  0  0  0  0  0
   -2.4441   -7.2470   28.4348 C   0  0  0  0  0  0  0  0  0  0  0  0
   -3.5037   -7.5591   29.4554 C   0  0  0  0  0  0  0  0  0  0  0  0
   -6.9492  -17.2824   32.4910 N   0  0  0  0  0  0  0  0  0  0  0  0
   -6.7252  -18.8494   33.0880 C   0  0  0  0  0  0  0  0  0  0  0  0
   -5.7853  -19.6238   32.9679 O   0  0  0  0  0  0  0  0  0  0  0  0
   -7.9048  -19.2936   34.0376 C   0  0  0  0  0  0  0  0  0  0  0  0
   -7.7799  -20.3239   35.0231 C   0  0  0  0  0  0  0  0  0  0  0  0
   -8.6886  -19.9873   35.9987 C   0  0  0  0  0  0  0  0  0  0  0  0
   -9.3963  -18.9295   35.5146 N   0  0  0  0  0  0  0  0  0  0  0  0
   -8.9588  -18.4892   34.3266 N   0  0  0  0  0  0  0  0  0  0  0  0
   -4.0349  -15.6209   30.3811 H   0  0  0  0  0  0  0  0  0  0  0  0
   -3.6720  -16.6801   31.7823 H   0  0  0  0  0  0  0  0  0  0  0  0
   -3.6318  -14.9959   31.7975 H   0  0  0  0  0  0  0  0  0  0  0  0
   -5.8345  -16.4406   30.4435 H   0  0  0  0  0  0  0  0  0  0  0  0
   -5.2900  -14.1855   30.7789 H   0  0  0  0  0  0  0  0  0  0  0  0
   -6.5734  -13.6354   31.7337 H   0  0  0  0  0  0  0  0  0  0  0  0
   -7.3088  -13.6620   28.8391 H   0  0  0  0  0  0  0  0  0  0  0  0
   -6.1881  -14.4785   28.8787 H   0  0  0  0  0  0  0  0  0  0  0  0
   -4.6338  -11.6372   28.8671 H   0  0  0  0  0  0  0  0  0  0  0  0
   -5.2897   -8.5558   32.0192 H   0  0  0  0  0  0  0  0  0  0  0  0
   -3.2768   -8.9218   33.1590 H   0  0  0  0  0  0  0  0  0  0  0  0
   -1.2815   -7.8856   32.4667 H   0  0  0  0  0  0  0  0  0  0  0  0
   -0.3330   -6.5825   30.6067 H   0  0  0  0  0  0  0  0  0  0  0  0
   -0.1789   -7.7584   28.4463 H   0  0  0  0  0  0  0  0  0  0  0  0
   -2.7721   -7.3041   27.4057 H   0  0  0  0  0  0  0  0  0  0  0  0
   -7.8662  -16.9627   32.7179 H   0  0  0  0  0  0  0  0  0  0  0  0
   -7.0042  -21.0766   35.0807 H   0  0  0  0  0  0  0  0  0  0  0  0
   -8.8938  -20.4025   36.9730 H   0  0  0  0  0  0  0  0  0  0  0  0
  -10.1601  -18.4239   35.9543 H   0  0  0  0  0  0  0  0  0  0  0  0
  1  2  1  0
  2  3  1  0
  3  4  1  0
  4  5  1  0
  5  6  1  0
  6  7  2  0
  6  8  1  0
  8  9  2  0
  9 10  1  0
 10 11  2  0
 11 12  1  0
 12 13  1  0
 13 14  1  0
 14 15  2  0
 15 16  1  0
  2 17  1  0
 17 18  1  0
 18 19  2  0
 18 20  1  0
 20 21  1  0
 21 22  2  0
 22 23  1  0
 23 24  1  0
 16  8  1  0
 24 20  2  0
 16 12  2  0
  1 25  1  0
  1 26  1  0
  1 27  1  0
  2 28  1  0
  3 29  1  0
  3 30  1  0
  4 31  1  0
  4 32  1  0
  5 33  1  0
  9 34  1  0
 10 35  1  0
 11 36  1  0
 13 37  1  0
 14 38  1  0
 15 39  1  0
 17 40  1  0
 21 41  1  0
 22 42  1  0
 23 43  1  0
M  END
>  <Energy>  (1047) 
888.54478044344114

>  <compound_id>  (1047) 
30250

>  <target_id>  (1047) 
1

>  <reference_id>  (1047) 
40

>  <inspiration_ids>  (1047) 
[40, 123]

>  <energy_score>  (1047) 
813.6753943839979

>  <distance_score>  (1047) 
5.597874649753242

>  <path>  (1047) 
/opt/xchem-fragalysis-2/maxwin/BulkDock/SCRATCH/511023/C30250-P40/C30250-P40.minimised.mol

>  <scratch_subdir>  (1047) 
/opt/xchem-fragalysis-2/maxwin/BulkDock/SCRATCH/511023/C30250-P40

>  <fragmenstein_runtime>  (1047) 
15.051778316497803

>  <fragmenstein_outcome>  (1047) 
too moved

>  <fragmenstein_mode>  (1047) 
expansion

>  <fragmenstein_error>  (1047) 


$$$$
C30250-P123
     RDKit          3D

 43 45  0  0  0  0  0  0  0  0999 V2000
   -6.5018  -16.5311   33.0675 C   0  0  0  0  0  0  0  0  0  0  0  0
   -5.5297  -16.7503   31.6025 C   0  0  0  0  0  0  0  0  0  0  0  0
   -3.4244  -16.3470   32.1533 C   0  0  0  0  0  0  0  0  0  0  0  0
   -1.6389  -15.2913   31.8423 C   0  0  0  0  0  0  0  0  0  0  0  0
   -0.9877  -13.3984   31.5836 N   0  0  0  0  0  0  0  0  0  0  0  0
   -1.7645  -11.9423   30.6331 C   0  0  0  0  0  0  0  0  0  0  0  0
   -2.7829  -12.0247   29.9465 O   0  0  0  0  0  0  0  0  0  0  0  0
   -1.2947  -10.4151   30.7098 C   0  0  0  0  0  0  0  0  0  0  0  0
   -1.8955   -9.6087   31.8202 C   0  0  0  0  0  0  0  0  0  0  0  0
   -1.6922   -8.2479   32.0945 C   0  0  0  0  0  0  0  0  0  0  0  0
   -1.0382   -7.4683   31.1765 C   0  0  0  0  0  0  0  0  0  0  0  0
   -0.6695   -8.0985   29.9870 C   0  0  0  0  0  0  0  0  0  0  0  0
   -0.3959   -7.4588   28.7984 N   0  0  0  0  0  0  0  0  0  0  0  0
   -0.0901   -8.3891   27.8565 C   0  0  0  0  0  0  0  0  0  0  0  0
   -0.0679   -9.6337   28.4637 C   0  0  0  0  0  0  0  0  0  0  0  0
   -0.6542   -9.5259   29.7478 C   0  0  0  0  0  0  0  0  0  0  0  0
   -6.6926  -18.1995   30.6466 N   0  0  0  0  0  0  0  0  0  0  0  0
   -7.8359  -18.1614   29.0076 C   0  0  0  0  0  0  0  0  0  0  0  0
   -7.9323  -17.1811   28.2385 O   0  0  0  0  0  0  0  0  0  0  0  0
   -8.8903  -19.6268   28.3287 C   0  0  0  0  0  0  0  0  0  0  0  0
   -8.8325  -21.3221   27.4493 C   0  0  0  0  0  0  0  0  0  0  0  0
   -9.9092  -22.1570   27.6688 C   0  0  0  0  0  0  0  0  0  0  0  0
  -10.6180  -21.6261   28.6850 N   0  0  0  0  0  0  0  0  0  0  0  0
  -10.1018  -20.4513   29.3486 N   0  0  0  0  0  0  0  0  0  0  0  0
   -7.4605  -15.9983   33.0348 H   0  0  0  0  0  0  0  0  0  0  0  0
   -6.7853  -17.5043   33.4851 H   0  0  0  0  0  0  0  0  0  0  0  0
   -5.9533  -15.9344   33.7674 H   0  0  0  0  0  0  0  0  0  0  0  0
   -5.2895  -17.5751   32.3177 H   0  0  0  0  0  0  0  0  0  0  0  0
   -3.4584  -15.6890   32.9685 H   0  0  0  0  0  0  0  0  0  0  0  0
   -2.9670  -17.2714   32.4641 H   0  0  0  0  0  0  0  0  0  0  0  0
   -0.8274  -15.7928   31.3443 H   0  0  0  0  0  0  0  0  0  0  0  0
   -1.5837  -15.0349   32.8990 H   0  0  0  0  0  0  0  0  0  0  0  0
   -0.2155  -13.0662   32.1325 H   0  0  0  0  0  0  0  0  0  0  0  0
   -2.4891  -10.0806   32.5774 H   0  0  0  0  0  0  0  0  0  0  0  0
   -2.0769   -7.8107   33.0110 H   0  0  0  0  0  0  0  0  0  0  0  0
   -0.9277   -6.3995   31.3231 H   0  0  0  0  0  0  0  0  0  0  0  0
   -0.3969   -6.4561   28.6713 H   0  0  0  0  0  0  0  0  0  0  0  0
    0.0865   -8.0585   26.8484 H   0  0  0  0  0  0  0  0  0  0  0  0
    0.2245  -10.5488   27.9989 H   0  0  0  0  0  0  0  0  0  0  0  0
   -6.7111  -19.1055   31.0489 H   0  0  0  0  0  0  0  0  0  0  0  0
   -7.8621  -21.7369   27.2546 H   0  0  0  0  0  0  0  0  0  0  0  0
  -10.1147  -23.1576   27.3183 H   0  0  0  0  0  0  0  0  0  0  0  0
  -11.4359  -22.0426   29.1142 H   0  0  0  0  0  0  0  0  0  0  0  0
  1  2  1  0
  2  3  1  0
  3  4  1  0
  4  5  1  0
  5  6  1  0
  6  7  2  0
  6  8  1  0
  8  9  2  0
  9 10  1  0
 10 11  2  0
 11 12  1  0
 12 13  1  0
 13 14  1  0
 14 15  2  0
 15 16  1  0
  2 17  1  0
 17 18  1  0
 18 19  2  0
 18 20  1  0
 20 21  1  0
 21 22  2  0
 22 23  1  0
 23 24  1  0
 16  8  1  0
 24 20  2  0
 16 12  2  0
  1 25  1  0
  1 26  1  0
  1 27  1  0
  2 28  1  0
  3 29  1  0
  3 30  1  0
  4 31  1  0
  4 32  1  0
  5 33  1  0
  9 34  1  0
 10 35  1  0
 11 36  1  0
 13 37  1  0
 14 38  1  0
 15 39  1  0
 17 40  1  0
 21 41  1  0
 22 42  1  0
 23 43  1  0
M  END
>  <Energy>  (1048) 
1047.3697682007919

>  <compound_id>  (1048) 
30250

>  <target_id>  (1048) 
1

>  <reference_id>  (1048) 
123

>  <inspiration_ids>  (1048) 
[40, 123]

>  <energy_score>  (1048) 
972.5003821413724

>  <distance_score>  (1048) 
4.767315845703664

>  <path>  (1048) 
/opt/xchem-fragalysis-2/maxwin/BulkDock/SCRATCH/511023/C30250-P123/C30250-P123.minimised.mol

>  <scratch_subdir>  (1048) 
/opt/xchem-fragalysis-2/maxwin/BulkDock/SCRATCH/511023/C30250-P123

>  <fragmenstein_runtime>  (1048) 
14.791959285736084

>  <fragmenstein_outcome>  (1048) 
too moved

>  <fragmenstein_mode>  (1048) 
expansion

>  <fragmenstein_error>  (1048) 


$$$$
C30251-P40
     RDKit          3D

 46 48  0  0  0  0  0  0  0  0999 V2000
   -5.9616  -19.2731   33.1493 C   0  0  0  0  0  0  0  0  0  0  0  0
   -6.0434  -17.4026   32.5029 C   0  0  0  0  0  0  0  0  0  0  0  0
   -4.6509  -15.9887   31.5366 C   0  0  0  0  0  0  0  0  0  0  0  0
   -2.6793  -15.2109   31.1875 C   0  0  0  0  0  0  0  0  0  0  0  0
   -2.4809  -13.4572   31.6790 N   0  0  0  0  0  0  0  0  0  0  0  0
   -1.1915  -11.9181   31.1536 C   0  0  0  0  0  0  0  0  0  0  0  0
   -0.2418  -11.9955   30.4466 O   0  0  0  0  0  0  0  0  0  0  0  0
   -1.4494   -9.9976   31.6271 C   0  0  0  0  0  0  0  0  0  0  0  0
   -2.0507   -9.1040   32.5860 C   0  0  0  0  0  0  0  0  0  0  0  0
   -1.6262   -7.8168   33.0232 C   0  0  0  0  0  0  0  0  0  0  0  0
   -0.7744   -7.0470   32.3083 C   0  0  0  0  0  0  0  0  0  0  0  0
   -0.4581   -7.6138   31.1034 C   0  0  0  0  0  0  0  0  0  0  0  0
   -0.7465   -8.9707   30.7671 C   0  0  0  0  0  0  0  0  0  0  0  0
   -0.2414   -9.0290   29.4388 C   0  0  0  0  0  0  0  0  0  0  0  0
    0.3917   -7.8731   29.0683 C   0  0  0  0  0  0  0  0  0  0  0  0
    0.2155   -6.9930   30.0757 N   0  0  0  0  0  0  0  0  0  0  0  0
    0.6849   -5.6215   30.0767 C   0  0  0  0  0  0  0  0  0  0  0  0
   -7.4928  -18.3250   32.1672 N   0  0  0  0  0  0  0  0  0  0  0  0
   -8.8682  -18.8940   33.2938 C   0  0  0  0  0  0  0  0  0  0  0  0
   -9.0063  -18.6228   34.4781 O   0  0  0  0  0  0  0  0  0  0  0  0
  -10.2854  -19.9385   32.3643 C   0  0  0  0  0  0  0  0  0  0  0  0
  -10.9349  -20.6945   30.8027 C   0  0  0  0  0  0  0  0  0  0  0  0
  -11.7458  -21.7484   30.6453 C   0  0  0  0  0  0  0  0  0  0  0  0
  -11.1612  -22.4040   31.6564 N   0  0  0  0  0  0  0  0  0  0  0  0
   -9.9283  -21.5571   32.2289 N   0  0  0  0  0  0  0  0  0  0  0  0
   -6.3977  -20.0838   32.5334 H   0  0  0  0  0  0  0  0  0  0  0  0
   -6.6043  -19.4788   34.0246 H   0  0  0  0  0  0  0  0  0  0  0  0
   -4.9723  -19.7367   33.3051 H   0  0  0  0  0  0  0  0  0  0  0  0
   -6.8794  -16.7894   32.6939 H   0  0  0  0  0  0  0  0  0  0  0  0
   -4.8786  -16.1341   30.4514 H   0  0  0  0  0  0  0  0  0  0  0  0
   -5.2678  -15.0786   31.5942 H   0  0  0  0  0  0  0  0  0  0  0  0
   -1.9497  -15.6094   31.8893 H   0  0  0  0  0  0  0  0  0  0  0  0
   -2.5656  -15.0608   30.1177 H   0  0  0  0  0  0  0  0  0  0  0  0
   -3.1632  -13.1874   32.2990 H   0  0  0  0  0  0  0  0  0  0  0  0
   -2.7983   -9.3969   33.3016 H   0  0  0  0  0  0  0  0  0  0  0  0
   -1.9923   -7.4392   33.9771 H   0  0  0  0  0  0  0  0  0  0  0  0
   -0.4899   -6.0503   32.6192 H   0  0  0  0  0  0  0  0  0  0  0  0
   -0.3613   -9.9248   28.8742 H   0  0  0  0  0  0  0  0  0  0  0  0
    0.9574   -7.5965   28.1974 H   0  0  0  0  0  0  0  0  0  0  0  0
    1.1898   -5.4087   29.1308 H   0  0  0  0  0  0  0  0  0  0  0  0
   -0.1776   -4.9606   30.1913 H   0  0  0  0  0  0  0  0  0  0  0  0
    1.3867   -5.4955   30.9050 H   0  0  0  0  0  0  0  0  0  0  0  0
   -7.5834  -18.7610   31.2747 H   0  0  0  0  0  0  0  0  0  0  0  0
  -10.5119  -20.6239   29.8351 H   0  0  0  0  0  0  0  0  0  0  0  0
  -12.2416  -22.2037   29.8043 H   0  0  0  0  0  0  0  0  0  0  0  0
  -11.1234  -23.3867   31.9127 H   0  0  0  0  0  0  0  0  0  0  0  0
  1  2  1  0
  2  3  1  0
  3  4  1  0
  4  5  1  0
  5  6  1  0
  6  7  2  0
  6  8  1  0
  8  9  2  0
  9 10  1  0
 10 11  2  0
 11 12  1  0
 12 13  2  0
 13 14  1  0
 14 15  2  0
 15 16  1  0
 16 17  1  0
  2 18  1  0
 18 19  1  0
 19 20  2  0
 19 21  1  0
 21 22  1  0
 22 23  2  0
 23 24  1  0
 24 25  1  0
 13  8  1  0
 25 21  2  0
 16 12  1  0
  1 26  1  0
  1 27  1  0
  1 28  1  0
  2 29  1  0
  3 30  1  0
  3 31  1  0
  4 32  1  0
  4 33  1  0
  5 34  1  0
  9 35  1  0
 10 36  1  0
 11 37  1  0
 14 38  1  0
 15 39  1  0
 17 40  1  0
 17 41  1  0
 17 42  1  0
 18 43  1  0
 22 44  1  0
 23 45  1  0
 24 46  1  0
M  END
>  <Energy>  (1049) 
1170.2194148270503

>  <compound_id>  (1049) 
30251

>  <target_id>  (1049) 
1

>  <reference_id>  (1049) 
40

>  <inspiration_ids>  (1049) 
[40, 123]

>  <energy_score>  (1049) 
1090.1179872769048

>  <distance_score>  (1049) 
3.7580459005170286

>  <path>  (1049) 
/opt/xchem-fragalysis-2/maxwin/BulkDock/SCRATCH/511023/C30251-P40/C30251-P40.minimised.mol

>  <scratch_subdir>  (1049) 
/opt/xchem-fragalysis-2/maxwin/BulkDock/SCRATCH/511023/C30251-P40

>  <fragmenstein_runtime>  (1049) 
18.124313592910767

>  <fragmenstein_outcome>  (1049) 
too moved

>  <fragmenstein_mode>  (1049) 
expansion

>  <fragmenstein_error>  (1049) 


$$$$
C30251-P123
     RDKit          3D

 46 48  0  0  0  0  0  0  0  0999 V2000
   -3.3479  -16.5806   32.4773 C   0  0  0  0  0  0  0  0  0  0  0  0
   -5.1892  -16.6721   32.0069 C   0  0  0  0  0  0  0  0  0  0  0  0
   -5.0627  -15.9058   30.1413 C   0  0  0  0  0  0  0  0  0  0  0  0
   -3.2885  -14.8436   29.8111 C   0  0  0  0  0  0  0  0  0  0  0  0
   -3.0607  -12.8786   29.8022 N   0  0  0  0  0  0  0  0  0  0  0  0
   -1.7694  -11.8131   30.5446 C   0  0  0  0  0  0  0  0  0  0  0  0
   -0.8158  -12.2725   31.1574 O   0  0  0  0  0  0  0  0  0  0  0  0
   -1.6949  -10.2988   30.5763 C   0  0  0  0  0  0  0  0  0  0  0  0
   -2.0801   -9.5522   31.7846 C   0  0  0  0  0  0  0  0  0  0  0  0
   -1.7689   -8.2103   32.0813 C   0  0  0  0  0  0  0  0  0  0  0  0
   -1.1144   -7.4204   31.1596 C   0  0  0  0  0  0  0  0  0  0  0  0
   -0.7294   -8.0326   29.9630 C   0  0  0  0  0  0  0  0  0  0  0  0
   -0.7757   -9.4635   29.7385 C   0  0  0  0  0  0  0  0  0  0  0  0
   -0.0777   -9.6366   28.5172 C   0  0  0  0  0  0  0  0  0  0  0  0
   -0.0743   -8.4152   27.8670 C   0  0  0  0  0  0  0  0  0  0  0  0
   -0.3964   -7.4423   28.7628 N   0  0  0  0  0  0  0  0  0  0  0  0
   -0.4434   -6.0379   28.4421 C   0  0  0  0  0  0  0  0  0  0  0  0
   -6.3167  -17.1997   32.8258 N   0  0  0  0  0  0  0  0  0  0  0  0
   -7.0099  -16.6228   33.9804 C   0  0  0  0  0  0  0  0  0  0  0  0
   -6.8362  -15.5941   34.5443 O   0  0  0  0  0  0  0  0  0  0  0  0
   -8.0776  -17.3864   34.6528 C   0  0  0  0  0  0  0  0  0  0  0  0
   -8.3445  -17.2489   36.0597 C   0  0  0  0  0  0  0  0  0  0  0  0
   -9.7051  -17.0569   36.1740 C   0  0  0  0  0  0  0  0  0  0  0  0
  -10.1712  -17.2023   34.9121 N   0  0  0  0  0  0  0  0  0  0  0  0
   -9.2323  -17.6375   34.0575 N   0  0  0  0  0  0  0  0  0  0  0  0
   -2.7100  -16.3070   31.6477 H   0  0  0  0  0  0  0  0  0  0  0  0
   -3.0123  -15.7087   33.0512 H   0  0  0  0  0  0  0  0  0  0  0  0
   -2.8182  -17.5024   32.5998 H   0  0  0  0  0  0  0  0  0  0  0  0
   -5.3685  -15.8677   32.6507 H   0  0  0  0  0  0  0  0  0  0  0  0
   -5.2563  -16.6901   29.4375 H   0  0  0  0  0  0  0  0  0  0  0  0
   -5.8316  -15.1209   30.1324 H   0  0  0  0  0  0  0  0  0  0  0  0
   -2.4588  -15.3820   30.2588 H   0  0  0  0  0  0  0  0  0  0  0  0
   -2.8764  -15.1043   28.8165 H   0  0  0  0  0  0  0  0  0  0  0  0
   -3.7947  -12.2863   29.4186 H   0  0  0  0  0  0  0  0  0  0  0  0
   -2.5661  -10.0395   32.6037 H   0  0  0  0  0  0  0  0  0  0  0  0
   -2.0452   -7.7952   33.0485 H   0  0  0  0  0  0  0  0  0  0  0  0
   -0.9415   -6.3673   31.3525 H   0  0  0  0  0  0  0  0  0  0  0  0
    0.2156  -10.5677   28.0855 H   0  0  0  0  0  0  0  0  0  0  0  0
    0.1324   -8.1267   26.8532 H   0  0  0  0  0  0  0  0  0  0  0  0
    0.0979   -5.8434   27.5157 H   0  0  0  0  0  0  0  0  0  0  0  0
   -1.4749   -5.7869   28.2437 H   0  0  0  0  0  0  0  0  0  0  0  0
   -0.0267   -5.4517   29.2625 H   0  0  0  0  0  0  0  0  0  0  0  0
   -6.7872  -18.0708   32.5526 H   0  0  0  0  0  0  0  0  0  0  0  0
   -7.6319  -17.0100   36.8302 H   0  0  0  0  0  0  0  0  0  0  0  0
  -10.3399  -16.7711   36.9982 H   0  0  0  0  0  0  0  0  0  0  0  0
  -11.1118  -17.0911   34.5371 H   0  0  0  0  0  0  0  0  0  0  0  0
  1  2  1  0
  2  3  1  0
  3  4  1  0
  4  5  1  0
  5  6  1  0
  6  7  2  0
  6  8  1  0
  8  9  2  0
  9 10  1  0
 10 11  2  0
 11 12  1  0
 12 13  2  0
 13 14  1  0
 14 15  2  0
 15 16  1  0
 16 17  1  0
  2 18  1  0
 18 19  1  0
 19 20  2  0
 19 21  1  0
 21 22  1  0
 22 23  2  0
 23 24  1  0
 24 25  1  0
 13  8  1  0
 25 21  2  0
 16 12  1  0
  1 26  1  0
  1 27  1  0
  1 28  1  0
  2 29  1  0
  3 30  1  0
  3 31  1  0
  4 32  1  0
  4 33  1  0
  5 34  1  0
  9 35  1  0
 10 36  1  0
 11 37  1  0
 14 38  1  0
 15 39  1  0
 17 40  1  0
 17 41  1  0
 17 42  1  0
 18 43  1  0
 22 44  1  0
 23 45  1  0
 24 46  1  0
M  END
>  <Energy>  (1050) 
474.58434151012455

>  <compound_id>  (1050) 
30251

>  <target_id>  (1050) 
1

>  <reference_id>  (1050) 
123

>  <inspiration_ids>  (1050) 
[40, 123]

>  <energy_score>  (1050) 
394.48291395998933

>  <distance_score>  (1050) 
6.025322616388138

>  <path>  (1050) 
/opt/xchem-fragalysis-2/maxwin/BulkDock/SCRATCH/511023/C30251-P123/C30251-P123.minimised.mol

>  <scratch_subdir>  (1050) 
/opt/xchem-fragalysis-2/maxwin/BulkDock/SCRATCH/511023/C30251-P123

>  <fragmenstein_runtime>  (1050) 
24.05778193473816

>  <fragmenstein_outcome>  (1050) 
too moved

>  <fragmenstein_mode>  (1050) 
expansion

>  <fragmenstein_error>  (1050) 


$$$$
C30252-P40
     RDKit          3D

 50 52  0  0  0  0  0  0  0  0999 V2000
   -5.8595  -11.8439   32.7288 C   0  0  0  0  0  0  0  0  0  0  0  0
   -6.8277  -12.6927   32.1796 C   0  0  0  0  0  0  0  0  0  0  0  0
   -8.0207  -12.3318   32.9685 C   0  0  0  0  0  0  0  0  0  0  0  0
   -6.6571  -14.1264   31.4583 C   0  0  0  0  0  0  0  0  0  0  0  0
   -5.8678  -15.1653   30.5297 C   0  0  0  0  0  0  0  0  0  0  0  0
   -5.6210  -13.5055   29.9032 C   0  0  0  0  0  0  0  0  0  0  0  0
   -4.4053  -12.1883   29.1393 N   0  0  0  0  0  0  0  0  0  0  0  0
   -2.6970  -11.6973   29.3386 C   0  0  0  0  0  0  0  0  0  0  0  0
   -1.4523  -10.4342   30.1488 C   0  0  0  0  0  0  0  0  0  0  0  0
   -0.5997   -9.7481   29.2699 C   0  0  0  0  0  0  0  0  0  0  0  0
    0.0083   -8.4459   29.3516 C   0  0  0  0  0  0  0  0  0  0  0  0
   -0.1838   -7.6801   30.4872 C   0  0  0  0  0  0  0  0  0  0  0  0
    0.1790   -6.3732   30.8925 C   0  0  0  0  0  0  0  0  0  0  0  0
   -0.3100   -6.1994   32.1648 C   0  0  0  0  0  0  0  0  0  0  0  0
   -0.9518   -7.3550   32.5322 N   0  0  0  0  0  0  0  0  0  0  0  0
   -0.9127   -8.2657   31.5000 C   0  0  0  0  0  0  0  0  0  0  0  0
   -1.5317   -9.5599   31.3684 C   0  0  0  0  0  0  0  0  0  0  0  0
   -5.9141  -16.2910   31.7994 N   0  0  0  0  0  0  0  0  0  0  0  0
   -6.8350  -17.8778   32.0005 C   0  0  0  0  0  0  0  0  0  0  0  0
   -7.4650  -18.2918   31.1098 O   0  0  0  0  0  0  0  0  0  0  0  0
   -6.8911  -18.9629   33.2527 C   0  0  0  0  0  0  0  0  0  0  0  0
   -8.0652  -19.2153   34.1679 C   0  0  0  0  0  0  0  0  0  0  0  0
   -7.7463  -20.3241   34.9130 C   0  0  0  0  0  0  0  0  0  0  0  0
   -6.6628  -20.8632   34.2996 N   0  0  0  0  0  0  0  0  0  0  0  0
   -6.1321  -20.1073   33.3170 N   0  0  0  0  0  0  0  0  0  0  0  0
   -5.1769  -12.5024   33.1812 H   0  0  0  0  0  0  0  0  0  0  0  0
   -6.0711  -11.0272   33.4126 H   0  0  0  0  0  0  0  0  0  0  0  0
   -5.5714  -11.3294   31.8474 H   0  0  0  0  0  0  0  0  0  0  0  0
   -6.9718  -12.0382   31.3959 H   0  0  0  0  0  0  0  0  0  0  0  0
   -8.6927  -13.2042   33.0201 H   0  0  0  0  0  0  0  0  0  0  0  0
   -8.5756  -11.5765   32.4072 H   0  0  0  0  0  0  0  0  0  0  0  0
   -7.8118  -11.8030   33.8825 H   0  0  0  0  0  0  0  0  0  0  0  0
   -7.6247  -14.5894   31.6475 H   0  0  0  0  0  0  0  0  0  0  0  0
   -5.8329  -14.3012   32.0985 H   0  0  0  0  0  0  0  0  0  0  0  0
   -4.7978  -15.4461   30.5997 H   0  0  0  0  0  0  0  0  0  0  0  0
   -4.7100  -13.9238   30.1388 H   0  0  0  0  0  0  0  0  0  0  0  0
   -6.4058  -13.6882   29.1514 H   0  0  0  0  0  0  0  0  0  0  0  0
   -4.8734  -11.6717   28.3977 H   0  0  0  0  0  0  0  0  0  0  0  0
   -2.5262  -11.4337   28.2995 H   0  0  0  0  0  0  0  0  0  0  0  0
   -2.3169  -12.6348   29.1031 H   0  0  0  0  0  0  0  0  0  0  0  0
   -0.5998  -10.2297   28.3392 H   0  0  0  0  0  0  0  0  0  0  0  0
    0.5655   -8.0196   28.5291 H   0  0  0  0  0  0  0  0  0  0  0  0
    0.7390   -5.6387   30.3282 H   0  0  0  0  0  0  0  0  0  0  0  0
   -0.2560   -5.3608   32.8478 H   0  0  0  0  0  0  0  0  0  0  0  0
   -1.3938   -7.5252   33.4277 H   0  0  0  0  0  0  0  0  0  0  0  0
   -2.2509   -9.6713   32.1583 H   0  0  0  0  0  0  0  0  0  0  0  0
   -5.4233  -16.1512   32.5259 H   0  0  0  0  0  0  0  0  0  0  0  0
   -8.9435  -18.5893   34.2552 H   0  0  0  0  0  0  0  0  0  0  0  0
   -8.2248  -20.8131   35.7451 H   0  0  0  0  0  0  0  0  0  0  0  0
   -6.2111  -21.7448   34.5199 H   0  0  0  0  0  0  0  0  0  0  0  0
  1  2  1  0
  2  3  1  0
  2  4  1  0
  4  5  1  0
  5  6  1  0
  6  7  1  0
  7  8  1  0
  8  9  1  0
  9 10  2  0
 10 11  1  0
 11 12  2  0
 12 13  1  0
 13 14  2  0
 14 15  1  0
 15 16  1  0
 16 17  2  0
  5 18  1  0
 18 19  1  0
 19 20  2  0
 19 21  1  0
 21 22  1  0
 22 23  2  0
 23 24  1  0
 24 25  1  0
 17  9  1  0
 25 21  2  0
 16 12  1  0
  1 26  1  0
  1 27  1  0
  1 28  1  0
  2 29  1  0
  3 30  1  0
  3 31  1  0
  3 32  1  0
  4 33  1  0
  4 34  1  0
  5 35  1  0
  6 36  1  0
  6 37  1  0
  7 38  1  0
  8 39  1  0
  8 40  1  0
 10 41  1  0
 11 42  1  0
 13 43  1  0
 14 44  1  0
 15 45  1  0
 17 46  1  0
 18 47  1  0
 22 48  1  0
 23 49  1  0
 24 50  1  0
M  END
>  <Energy>  (1051) 
758.08443272376508

>  <compound_id>  (1051) 
30252

>  <target_id>  (1051) 
1

>  <reference_id>  (1051) 
40

>  <inspiration_ids>  (1051) 
[40, 123]

>  <energy_score>  (1051) 
651.6536293451849

>  <distance_score>  (1051) 
5.664381542133688

>  <path>  (1051) 
/opt/xchem-fragalysis-2/maxwin/BulkDock/SCRATCH/511023/C30252-P40/C30252-P40.minimised.mol

>  <scratch_subdir>  (1051) 
/opt/xchem-fragalysis-2/maxwin/BulkDock/SCRATCH/511023/C30252-P40

>  <fragmenstein_runtime>  (1051) 
18.48667287826538

>  <fragmenstein_outcome>  (1051) 
too moved

>  <fragmenstein_mode>  (1051) 
expansion

>  <fragmenstein_error>  (1051) 


$$$$
C30252-P123
     RDKit          3D

 50 52  0  0  0  0  0  0  0  0999 V2000
  -10.2151  -16.8593   35.0311 C   0  0  0  0  0  0  0  0  0  0  0  0
   -8.7703  -16.5479   34.7247 C   0  0  0  0  0  0  0  0  0  0  0  0
   -7.9206  -17.8010   34.9172 C   0  0  0  0  0  0  0  0  0  0  0  0
   -8.3701  -15.8527   33.3075 C   0  0  0  0  0  0  0  0  0  0  0  0
   -9.4764  -14.7053   32.1903 C   0  0  0  0  0  0  0  0  0  0  0  0
   -7.5612  -14.1124   31.6609 C   0  0  0  0  0  0  0  0  0  0  0  0
   -6.8730  -12.3485   31.9229 N   0  0  0  0  0  0  0  0  0  0  0  0
   -5.5831  -11.2054   31.5603 C   0  0  0  0  0  0  0  0  0  0  0  0
   -4.7532   -9.7431   32.5221 C   0  0  0  0  0  0  0  0  0  0  0  0
   -4.7461   -9.3616   33.9061 C   0  0  0  0  0  0  0  0  0  0  0  0
   -3.6399   -8.7817   34.6646 C   0  0  0  0  0  0  0  0  0  0  0  0
   -2.4974   -8.3087   34.0150 C   0  0  0  0  0  0  0  0  0  0  0  0
   -1.3891   -7.5070   34.3722 C   0  0  0  0  0  0  0  0  0  0  0  0
   -0.8164   -7.0608   33.2035 C   0  0  0  0  0  0  0  0  0  0  0  0
   -1.4470   -7.6796   32.1623 N   0  0  0  0  0  0  0  0  0  0  0  0
   -2.4972   -8.4320   32.6414 C   0  0  0  0  0  0  0  0  0  0  0  0
   -3.6064   -9.0580   31.9917 C   0  0  0  0  0  0  0  0  0  0  0  0
  -10.0915  -16.5501   31.9309 N   0  0  0  0  0  0  0  0  0  0  0  0
  -10.8240  -17.7867   30.1761 C   0  0  0  0  0  0  0  0  0  0  0  0
  -11.1554  -17.5658   28.9883 O   0  0  0  0  0  0  0  0  0  0  0  0
  -10.6318  -19.8608   30.9855 C   0  0  0  0  0  0  0  0  0  0  0  0
  -11.1009  -21.1532   30.2443 C   0  0  0  0  0  0  0  0  0  0  0  0
  -11.5619  -22.0137   31.2059 C   0  0  0  0  0  0  0  0  0  0  0  0
  -11.4682  -21.3241   32.3649 N   0  0  0  0  0  0  0  0  0  0  0  0
  -10.6658  -20.2210   32.3219 N   0  0  0  0  0  0  0  0  0  0  0  0
  -10.5571  -17.8057   34.6404 H   0  0  0  0  0  0  0  0  0  0  0  0
  -10.8705  -16.1066   34.5949 H   0  0  0  0  0  0  0  0  0  0  0  0
  -10.3662  -16.9411   36.1129 H   0  0  0  0  0  0  0  0  0  0  0  0
   -8.4192  -15.8984   35.5365 H   0  0  0  0  0  0  0  0  0  0  0  0
   -8.0133  -18.1947   35.9314 H   0  0  0  0  0  0  0  0  0  0  0  0
   -8.1613  -18.5779   34.1904 H   0  0  0  0  0  0  0  0  0  0  0  0
   -6.8824  -17.5520   34.7641 H   0  0  0  0  0  0  0  0  0  0  0  0
   -7.4417  -15.3457   33.5738 H   0  0  0  0  0  0  0  0  0  0  0  0
   -7.9046  -16.6944   32.8312 H   0  0  0  0  0  0  0  0  0  0  0  0
   -9.4213  -14.3140   31.1659 H   0  0  0  0  0  0  0  0  0  0  0  0
   -6.7344  -14.7484   31.3418 H   0  0  0  0  0  0  0  0  0  0  0  0
   -7.6182  -13.9622   30.5945 H   0  0  0  0  0  0  0  0  0  0  0  0
   -7.6524  -11.7183   32.1483 H   0  0  0  0  0  0  0  0  0  0  0  0
   -4.8337  -11.7822   30.9992 H   0  0  0  0  0  0  0  0  0  0  0  0
   -6.1059  -10.6462   30.7734 H   0  0  0  0  0  0  0  0  0  0  0  0
   -5.5049   -9.5896   34.6202 H   0  0  0  0  0  0  0  0  0  0  0  0
   -3.7598   -8.6509   35.7379 H   0  0  0  0  0  0  0  0  0  0  0  0
   -1.1114   -7.1895   35.3673 H   0  0  0  0  0  0  0  0  0  0  0  0
    0.0110   -6.3853   33.0352 H   0  0  0  0  0  0  0  0  0  0  0  0
   -1.1785   -7.5658   31.1967 H   0  0  0  0  0  0  0  0  0  0  0  0
   -3.8424   -8.4736   31.1281 H   0  0  0  0  0  0  0  0  0  0  0  0
   -9.9893  -17.0799   32.8492 H   0  0  0  0  0  0  0  0  0  0  0  0
  -11.2367  -21.3416   29.1876 H   0  0  0  0  0  0  0  0  0  0  0  0
  -12.0546  -22.9765   31.1539 H   0  0  0  0  0  0  0  0  0  0  0  0
  -11.8666  -21.5900   33.2623 H   0  0  0  0  0  0  0  0  0  0  0  0
  1  2  1  0
  2  3  1  0
  2  4  1  0
  4  5  1  0
  5  6  1  0
  6  7  1  0
  7  8  1  0
  8  9  1  0
  9 10  2  0
 10 11  1  0
 11 12  2  0
 12 13  1  0
 13 14  2  0
 14 15  1  0
 15 16  1  0
 16 17  2  0
  5 18  1  0
 18 19  1  0
 19 20  2  0
 19 21  1  0
 21 22  1  0
 22 23  2  0
 23 24  1  0
 24 25  1  0
 17  9  1  0
 25 21  2  0
 16 12  1  0
  1 26  1  0
  1 27  1  0
  1 28  1  0
  2 29  1  0
  3 30  1  0
  3 31  1  0
  3 32  1  0
  4 33  1  0
  4 34  1  0
  5 35  1  0
  6 36  1  0
  6 37  1  0
  7 38  1  0
  8 39  1  0
  8 40  1  0
 10 41  1  0
 11 42  1  0
 13 43  1  0
 14 44  1  0
 15 45  1  0
 17 46  1  0
 18 47  1  0
 22 48  1  0
 23 49  1  0
 24 50  1  0
M  END
>  <Energy>  (1052) 
1184.5566991579474

>  <compound_id>  (1052) 
30252

>  <target_id>  (1052) 
1

>  <reference_id>  (1052) 
123

>  <inspiration_ids>  (1052) 
[40, 123]

>  <energy_score>  (1052) 
1078.1258957793932

>  <distance_score>  (1052) 
5.731218256944321

>  <path>  (1052) 
/opt/xchem-fragalysis-2/maxwin/BulkDock/SCRATCH/511023/C30252-P123/C30252-P123.minimised.mol

>  <scratch_subdir>  (1052) 
/opt/xchem-fragalysis-2/maxwin/BulkDock/SCRATCH/511023/C30252-P123

>  <fragmenstein_runtime>  (1052) 
18.245312452316284

>  <fragmenstein_outcome>  (1052) 
too moved

>  <fragmenstein_mode>  (1052) 
expansion

>  <fragmenstein_error>  (1052) 


$$$$
C30253-P40
     RDKit          3D

 43 45  0  0  0  0  0  0  0  0999 V2000
   -9.4223  -14.6436   32.9908 C   0  0  0  0  0  0  0  0  0  0  0  0
   -8.1519  -14.8871   32.1884 C   0  0  0  0  0  0  0  0  0  0  0  0
   -6.7778  -13.3489   32.1159 C   0  0  0  0  0  0  0  0  0  0  0  0
   -6.2174  -11.5705   32.8826 C   0  0  0  0  0  0  0  0  0  0  0  0
   -5.3402  -10.6706   34.4032 N   0  0  0  0  0  0  0  0  0  0  0  0
   -4.0491   -9.4719   34.4630 C   0  0  0  0  0  0  0  0  0  0  0  0
   -3.5639   -8.9508   33.4961 O   0  0  0  0  0  0  0  0  0  0  0  0
   -3.2992   -9.0515   35.6883 C   0  0  0  0  0  0  0  0  0  0  0  0
   -3.2386   -9.7447   36.8986 C   0  0  0  0  0  0  0  0  0  0  0  0
   -2.0789   -9.7676   37.7019 C   0  0  0  0  0  0  0  0  0  0  0  0
   -0.9341   -9.0208   37.3842 C   0  0  0  0  0  0  0  0  0  0  0  0
   -0.9309   -8.2186   36.2342 C   0  0  0  0  0  0  0  0  0  0  0  0
    0.0605   -7.3844   35.6299 C   0  0  0  0  0  0  0  0  0  0  0  0
   -0.4082   -7.0044   34.3994 C   0  0  0  0  0  0  0  0  0  0  0  0
   -1.6349   -7.5846   34.2576 N   0  0  0  0  0  0  0  0  0  0  0  0
   -2.0680   -8.2405   35.4160 C   0  0  0  0  0  0  0  0  0  0  0  0
   -8.0026  -16.8103   32.7093 N   0  0  0  0  0  0  0  0  0  0  0  0
   -8.7949  -17.6535   33.8666 C   0  0  0  0  0  0  0  0  0  0  0  0
   -9.6996  -17.3153   34.5957 O   0  0  0  0  0  0  0  0  0  0  0  0
   -8.2513  -19.0465   34.1530 C   0  0  0  0  0  0  0  0  0  0  0  0
   -8.5915  -19.8088   35.2995 C   0  0  0  0  0  0  0  0  0  0  0  0
   -7.6715  -20.8200   35.3345 C   0  0  0  0  0  0  0  0  0  0  0  0
   -6.8834  -20.6843   34.2484 N   0  0  0  0  0  0  0  0  0  0  0  0
   -7.1056  -19.5394   33.6078 N   0  0  0  0  0  0  0  0  0  0  0  0
   -9.4874  -15.1346   33.9394 H   0  0  0  0  0  0  0  0  0  0  0  0
   -9.5045  -13.5873   33.0445 H   0  0  0  0  0  0  0  0  0  0  0  0
  -10.3177  -15.1748   32.6961 H   0  0  0  0  0  0  0  0  0  0  0  0
   -8.3740  -14.7104   31.1671 H   0  0  0  0  0  0  0  0  0  0  0  0
   -6.6638  -13.1977   31.0600 H   0  0  0  0  0  0  0  0  0  0  0  0
   -5.9363  -14.0343   31.9969 H   0  0  0  0  0  0  0  0  0  0  0  0
   -5.3853  -12.2115   33.0026 H   0  0  0  0  0  0  0  0  0  0  0  0
   -7.2015  -11.6190   33.3549 H   0  0  0  0  0  0  0  0  0  0  0  0
   -5.6317  -10.8924   35.3475 H   0  0  0  0  0  0  0  0  0  0  0  0
   -4.1506  -10.1174   37.3378 H   0  0  0  0  0  0  0  0  0  0  0  0
   -2.0864  -10.3332   38.6320 H   0  0  0  0  0  0  0  0  0  0  0  0
   -0.0637   -9.0551   38.0319 H   0  0  0  0  0  0  0  0  0  0  0  0
    1.0333   -7.1490   36.0387 H   0  0  0  0  0  0  0  0  0  0  0  0
    0.0340   -6.4237   33.6032 H   0  0  0  0  0  0  0  0  0  0  0  0
   -2.1356   -7.6791   33.3871 H   0  0  0  0  0  0  0  0  0  0  0  0
   -7.2217  -17.3838   32.3377 H   0  0  0  0  0  0  0  0  0  0  0  0
   -9.3589  -19.5738   36.0236 H   0  0  0  0  0  0  0  0  0  0  0  0
   -7.4741  -21.6057   36.0202 H   0  0  0  0  0  0  0  0  0  0  0  0
   -6.1037  -21.2623   33.9532 H   0  0  0  0  0  0  0  0  0  0  0  0
  1  2  1  0
  2  3  1  0
  3  4  1  0
  4  5  1  0
  5  6  1  0
  6  7  2  0
  6  8  1  0
  8  9  2  0
  9 10  1  0
 10 11  2  0
 11 12  1  0
 12 13  1  0
 13 14  2  0
 14 15  1  0
 15 16  1  0
  2 17  1  0
 17 18  1  0
 18 19  2  0
 18 20  1  0
 20 21  1  0
 21 22  2  0
 22 23  1  0
 23 24  1  0
 16  8  1  0
 24 20  2  0
 16 12  2  0
  1 25  1  0
  1 26  1  0
  1 27  1  0
  2 28  1  0
  3 29  1  0
  3 30  1  0
  4 31  1  0
  4 32  1  0
  5 33  1  0
  9 34  1  0
 10 35  1  0
 11 36  1  0
 13 37  1  0
 14 38  1  0
 15 39  1  0
 17 40  1  0
 21 41  1  0
 22 42  1  0
 23 43  1  0
M  END
>  <Energy>  (1053) 
523.3592632355726

>  <compound_id>  (1053) 
30253

>  <target_id>  (1053) 
1

>  <reference_id>  (1053) 
40

>  <inspiration_ids>  (1053) 
[40, 123]

>  <energy_score>  (1053) 
455.4324568575629

>  <distance_score>  (1053) 
7.196012936487853

>  <path>  (1053) 
/opt/xchem-fragalysis-2/maxwin/BulkDock/SCRATCH/511023/C30253-P40/C30253-P40.minimised.mol

>  <scratch_subdir>  (1053) 
/opt/xchem-fragalysis-2/maxwin/BulkDock/SCRATCH/511023/C30253-P40

>  <fragmenstein_runtime>  (1053) 
31.60245442390442

>  <fragmenstein_outcome>  (1053) 
too moved

>  <fragmenstein_mode>  (1053) 
expansion

>  <fragmenstein_error>  (1053) 


$$$$
C30253-P123
     RDKit          3D

 43 45  0  0  0  0  0  0  0  0999 V2000
   -7.2774  -16.8042   36.0988 C   0  0  0  0  0  0  0  0  0  0  0  0
   -7.2503  -16.2337   34.7197 C   0  0  0  0  0  0  0  0  0  0  0  0
   -5.7007  -15.0917   34.4008 C   0  0  0  0  0  0  0  0  0  0  0  0
   -4.0948  -13.9145   34.9070 C   0  0  0  0  0  0  0  0  0  0  0  0
   -3.9697  -11.9785   35.2061 N   0  0  0  0  0  0  0  0  0  0  0  0
   -2.7263  -10.8654   34.9156 C   0  0  0  0  0  0  0  0  0  0  0  0
   -1.5952  -11.0336   34.5275 O   0  0  0  0  0  0  0  0  0  0  0  0
   -3.1853   -9.3038   35.0872 C   0  0  0  0  0  0  0  0  0  0  0  0
   -4.4545   -9.0966   34.5492 C   0  0  0  0  0  0  0  0  0  0  0  0
   -4.5510   -9.0366   33.1547 C   0  0  0  0  0  0  0  0  0  0  0  0
   -3.3955   -8.7213   32.4019 C   0  0  0  0  0  0  0  0  0  0  0  0
   -2.2785   -8.2266   33.0768 C   0  0  0  0  0  0  0  0  0  0  0  0
   -1.1960   -7.3858   32.7303 C   0  0  0  0  0  0  0  0  0  0  0  0
   -0.7211   -6.8744   33.9165 C   0  0  0  0  0  0  0  0  0  0  0  0
   -1.4444   -7.4310   34.9410 N   0  0  0  0  0  0  0  0  0  0  0  0
   -2.2735   -8.4136   34.4549 C   0  0  0  0  0  0  0  0  0  0  0  0
   -8.8220  -16.4211   34.5765 N   0  0  0  0  0  0  0  0  0  0  0  0
   -9.8548  -16.9737   35.5662 C   0  0  0  0  0  0  0  0  0  0  0  0
   -9.7247  -17.3194   36.7118 O   0  0  0  0  0  0  0  0  0  0  0  0
  -11.3049  -17.1122   35.1510 C   0  0  0  0  0  0  0  0  0  0  0  0
  -12.2308  -16.2192   34.5531 C   0  0  0  0  0  0  0  0  0  0  0  0
  -13.4727  -16.8095   34.6222 C   0  0  0  0  0  0  0  0  0  0  0  0
  -13.2610  -18.0082   35.2195 N   0  0  0  0  0  0  0  0  0  0  0  0
  -12.0038  -18.1835   35.6176 N   0  0  0  0  0  0  0  0  0  0  0  0
   -7.9115  -16.2493   36.7931 H   0  0  0  0  0  0  0  0  0  0  0  0
   -6.3467  -16.6548   36.5142 H   0  0  0  0  0  0  0  0  0  0  0  0
   -7.4946  -17.8796   36.1078 H   0  0  0  0  0  0  0  0  0  0  0  0
   -6.9538  -17.0416   34.0330 H   0  0  0  0  0  0  0  0  0  0  0  0
   -5.3912  -15.7384   33.5729 H   0  0  0  0  0  0  0  0  0  0  0  0
   -5.5126  -15.2058   35.4743 H   0  0  0  0  0  0  0  0  0  0  0  0
   -3.8810  -14.2751   35.9199 H   0  0  0  0  0  0  0  0  0  0  0  0
   -3.3205  -14.2318   34.2185 H   0  0  0  0  0  0  0  0  0  0  0  0
   -4.7781  -11.5068   35.4342 H   0  0  0  0  0  0  0  0  0  0  0  0
   -5.3320   -9.2769   35.1580 H   0  0  0  0  0  0  0  0  0  0  0  0
   -5.5157   -9.1241   32.6578 H   0  0  0  0  0  0  0  0  0  0  0  0
   -3.5279   -8.4446   31.3838 H   0  0  0  0  0  0  0  0  0  0  0  0
   -0.8802   -7.0693   31.7459 H   0  0  0  0  0  0  0  0  0  0  0  0
    0.0459   -6.1385   34.1169 H   0  0  0  0  0  0  0  0  0  0  0  0
   -1.3927   -7.1669   35.9164 H   0  0  0  0  0  0  0  0  0  0  0  0
   -9.2899  -16.1543   33.7200 H   0  0  0  0  0  0  0  0  0  0  0  0
  -11.9804  -15.3326   34.0136 H   0  0  0  0  0  0  0  0  0  0  0  0
  -14.4428  -16.5173   34.2497 H   0  0  0  0  0  0  0  0  0  0  0  0
  -13.9302  -18.7461   35.4105 H   0  0  0  0  0  0  0  0  0  0  0  0
  1  2  1  0
  2  3  1  0
  3  4  1  0
  4  5  1  0
  5  6  1  0
  6  7  2  0
  6  8  1  0
  8  9  2  0
  9 10  1  0
 10 11  2  0
 11 12  1  0
 12 13  1  0
 13 14  2  0
 14 15  1  0
 15 16  1  0
  2 17  1  0
 17 18  1  0
 18 19  2  0
 18 20  1  0
 20 21  1  0
 21 22  2  0
 22 23  1  0
 23 24  1  0
 16  8  1  0
 24 20  2  0
 16 12  2  0
  1 25  1  0
  1 26  1  0
  1 27  1  0
  2 28  1  0
  3 29  1  0
  3 30  1  0
  4 31  1  0
  4 32  1  0
  5 33  1  0
  9 34  1  0
 10 35  1  0
 11 36  1  0
 13 37  1  0
 14 38  1  0
 15 39  1  0
 17 40  1  0
 21 41  1  0
 22 42  1  0
 23 43  1  0
M  END
>  <Energy>  (1054) 
493.42963201462112

>  <compound_id>  (1054) 
30253

>  <target_id>  (1054) 
1

>  <reference_id>  (1054) 
123

>  <inspiration_ids>  (1054) 
[40, 123]

>  <energy_score>  (1054) 
425.502825636613

>  <distance_score>  (1054) 
7.0579552679108675

>  <path>  (1054) 
/opt/xchem-fragalysis-2/maxwin/BulkDock/SCRATCH/511023/C30253-P123/C30253-P123.minimised.mol

>  <scratch_subdir>  (1054) 
/opt/xchem-fragalysis-2/maxwin/BulkDock/SCRATCH/511023/C30253-P123

>  <fragmenstein_runtime>  (1054) 
26.09377908706665

>  <fragmenstein_outcome>  (1054) 
too moved

>  <fragmenstein_mode>  (1054) 
expansion

>  <fragmenstein_error>  (1054) 


$$$$
C46191-P40
     RDKit          3D

 43 46  0  0  0  0  0  0  0  0999 V2000
   -5.4231  -19.8608   33.0330 O   0  0  0  0  0  0  0  0  0  0  0  0
   -6.5458  -19.3788   33.0120 C   0  0  0  0  0  0  0  0  0  0  0  0
   -6.8162  -17.5479   32.4045 N   0  0  0  0  0  0  0  0  0  0  0  0
   -5.5189  -16.0727   31.6082 C   0  0  0  0  0  0  0  0  0  0  0  0
   -3.8800  -15.0262   30.7593 C   0  0  0  0  0  0  0  0  0  0  0  0
   -2.9519  -13.7755   29.4401 N   0  0  0  0  0  0  0  0  0  0  0  0
   -3.6687  -12.1924   29.0065 C   0  0  0  0  0  0  0  0  0  0  0  0
   -2.7926  -11.8688   27.9459 C   0  0  0  0  0  0  0  0  0  0  0  0
   -2.0077  -11.1311   28.7561 C   0  0  0  0  0  0  0  0  0  0  0  0
   -0.8696   -9.8646   29.0043 C   0  0  0  0  0  0  0  0  0  0  0  0
   -0.6179   -9.1805   30.1517 C   0  0  0  0  0  0  0  0  0  0  0  0
   -1.0956   -9.9468   31.0952 C   0  0  0  0  0  0  0  0  0  0  0  0
   -1.0507  -11.3651   30.7188 C   0  0  0  0  0  0  0  0  0  0  0  0
   -2.2377  -12.0218   29.7702 C   0  0  0  0  0  0  0  0  0  0  0  0
   -7.8695  -20.7816   33.5401 C   0  0  0  0  0  0  0  0  0  0  0  0
   -7.4585  -21.7673   34.3879 N   0  0  0  0  0  0  0  0  0  0  0  0
   -7.8189  -23.0639   33.8912 N   0  0  0  0  0  0  0  0  0  0  0  0
   -9.1843  -23.2839   32.7527 C   0  0  0  0  0  0  0  0  0  0  0  0
   -9.3239  -21.7119   32.4223 C   0  0  0  0  0  0  0  0  0  0  0  0
  -10.7432  -21.4009   31.1253 C   0  0  0  0  0  0  0  0  0  0  0  0
  -11.1143  -22.0119   29.7841 C   0  0  0  0  0  0  0  0  0  0  0  0
  -10.4493  -23.3986   29.7264 C   0  0  0  0  0  0  0  0  0  0  0  0
   -9.9144  -24.1057   31.6173 C   0  0  0  0  0  0  0  0  0  0  0  0
   -7.7555  -17.3062   32.5351 H   0  0  0  0  0  0  0  0  0  0  0  0
   -5.7717  -16.2827   30.5400 H   0  0  0  0  0  0  0  0  0  0  0  0
   -6.1049  -15.1589   31.7279 H   0  0  0  0  0  0  0  0  0  0  0  0
   -2.9639  -15.2266   31.3195 H   0  0  0  0  0  0  0  0  0  0  0  0
   -4.0700  -15.6726   29.9604 H   0  0  0  0  0  0  0  0  0  0  0  0
   -4.7445  -12.2232   29.0409 H   0  0  0  0  0  0  0  0  0  0  0  0
   -2.9504  -11.9401   26.8790 H   0  0  0  0  0  0  0  0  0  0  0  0
   -0.6242   -9.0776   28.3311 H   0  0  0  0  0  0  0  0  0  0  0  0
   -0.2092   -8.1919   30.2610 H   0  0  0  0  0  0  0  0  0  0  0  0
   -1.0444   -9.5655   32.1069 H   0  0  0  0  0  0  0  0  0  0  0  0
   -0.0711  -11.8204   30.6079 H   0  0  0  0  0  0  0  0  0  0  0  0
   -7.0900  -23.7479   33.8967 H   0  0  0  0  0  0  0  0  0  0  0  0
  -10.9748  -20.3967   31.2146 H   0  0  0  0  0  0  0  0  0  0  0  0
  -11.4492  -22.1176   31.5658 H   0  0  0  0  0  0  0  0  0  0  0  0
  -12.1995  -22.0627   29.6836 H   0  0  0  0  0  0  0  0  0  0  0  0
  -10.8032  -21.3990   28.9461 H   0  0  0  0  0  0  0  0  0  0  0  0
  -10.7528  -24.1539   28.9709 H   0  0  0  0  0  0  0  0  0  0  0  0
   -9.8413  -23.1323   28.8022 H   0  0  0  0  0  0  0  0  0  0  0  0
  -10.8471  -24.1694   32.1443 H   0  0  0  0  0  0  0  0  0  0  0  0
   -9.1350  -24.8991   31.6493 H   0  0  0  0  0  0  0  0  0  0  0  0
  1  2  2  0
  2  3  1  0
  3  4  1  0
  4  5  1  0
  5  6  1  0
  6  7  1  0
  7  8  2  0
  8  9  1  0
  9 10  2  0
 10 11  1  0
 11 12  2  0
 12 13  1  0
 13 14  2  0
  2 15  1  0
 15 16  2  0
 16 17  1  0
 17 18  1  0
 18 19  2  0
 19 20  1  0
 20 21  1  0
 21 22  1  0
 22 23  1  0
 14  6  1  0
 19 15  1  0
 14  9  1  0
 23 18  1  0
  3 24  1  0
  4 25  1  0
  4 26  1  0
  5 27  1  0
  5 28  1  0
  7 29  1  0
  8 30  1  0
 10 31  1  0
 11 32  1  0
 12 33  1  0
 13 34  1  0
 17 35  1  0
 20 36  1  0
 20 37  1  0
 21 38  1  0
 21 39  1  0
 22 40  1  0
 22 41  1  0
 23 42  1  0
 23 43  1  0
M  END
>  <Energy>  (1055) 
1526.7751695600678

>  <compound_id>  (1055) 
46191

>  <target_id>  (1055) 
1

>  <reference_id>  (1055) 
40

>  <inspiration_ids>  (1055) 
[40, 123]

>  <energy_score>  (1055) 
1441.9596636123401

>  <distance_score>  (1055) 
5.304112186149428

>  <path>  (1055) 
/opt/xchem-fragalysis-2/maxwin/BulkDock/SCRATCH/511023/C46191-P40/C46191-P40.minimised.mol

>  <scratch_subdir>  (1055) 
/opt/xchem-fragalysis-2/maxwin/BulkDock/SCRATCH/511023/C46191-P40

>  <fragmenstein_runtime>  (1055) 
19.2546648979187

>  <fragmenstein_outcome>  (1055) 
too moved

>  <fragmenstein_mode>  (1055) 
expansion

>  <fragmenstein_error>  (1055) 


$$$$
C46191-P123
     RDKit          3D

 43 46  0  0  0  0  0  0  0  0999 V2000
   -8.2202  -16.4348   33.3340 O   0  0  0  0  0  0  0  0  0  0  0  0
   -7.1994  -16.9814   33.0030 C   0  0  0  0  0  0  0  0  0  0  0  0
   -5.9748  -16.2250   31.8884 N   0  0  0  0  0  0  0  0  0  0  0  0
   -6.0385  -14.5151   30.8379 C   0  0  0  0  0  0  0  0  0  0  0  0
   -5.0623  -12.7659   30.4314 C   0  0  0  0  0  0  0  0  0  0  0  0
   -3.8051  -11.5435   30.7625 N   0  0  0  0  0  0  0  0  0  0  0  0
   -2.6428  -11.5529   29.9819 C   0  0  0  0  0  0  0  0  0  0  0  0
   -1.6117  -10.6900   30.3532 C   0  0  0  0  0  0  0  0  0  0  0  0
   -2.0245   -9.8272   31.4164 C   0  0  0  0  0  0  0  0  0  0  0  0
   -1.4693   -8.6380   31.9843 C   0  0  0  0  0  0  0  0  0  0  0  0
   -1.9551   -8.2056   33.1910 C   0  0  0  0  0  0  0  0  0  0  0  0
   -3.1768   -8.6871   33.5758 C   0  0  0  0  0  0  0  0  0  0  0  0
   -4.0167   -9.3509   32.6509 C   0  0  0  0  0  0  0  0  0  0  0  0
   -3.3528  -10.1825   31.7049 C   0  0  0  0  0  0  0  0  0  0  0  0
   -7.1968  -18.6905   33.6254 C   0  0  0  0  0  0  0  0  0  0  0  0
   -6.1803  -19.5362   33.2317 N   0  0  0  0  0  0  0  0  0  0  0  0
   -6.5358  -20.7919   33.1235 N   0  0  0  0  0  0  0  0  0  0  0  0
   -7.8395  -21.2159   33.3551 C   0  0  0  0  0  0  0  0  0  0  0  0
   -8.5094  -19.9576   33.5018 C   0  0  0  0  0  0  0  0  0  0  0  0
  -10.1236  -20.1582   32.8156 C   0  0  0  0  0  0  0  0  0  0  0  0
  -10.6894  -21.6049   32.1087 C   0  0  0  0  0  0  0  0  0  0  0  0
  -10.0348  -23.0289   32.5307 C   0  0  0  0  0  0  0  0  0  0  0  0
   -8.4665  -22.8460   33.1995 C   0  0  0  0  0  0  0  0  0  0  0  0
   -5.1938  -16.8140   31.8264 H   0  0  0  0  0  0  0  0  0  0  0  0
   -5.9713  -14.9659   29.8599 H   0  0  0  0  0  0  0  0  0  0  0  0
   -7.0355  -14.1331   31.0689 H   0  0  0  0  0  0  0  0  0  0  0  0
   -4.2623  -13.3031   29.9478 H   0  0  0  0  0  0  0  0  0  0  0  0
   -5.4199  -12.3015   29.5192 H   0  0  0  0  0  0  0  0  0  0  0  0
   -2.8262  -12.1866   29.1549 H   0  0  0  0  0  0  0  0  0  0  0  0
   -0.6953  -10.5406   29.7926 H   0  0  0  0  0  0  0  0  0  0  0  0
   -0.5499   -8.1924   31.6050 H   0  0  0  0  0  0  0  0  0  0  0  0
   -1.3911   -7.5090   33.8034 H   0  0  0  0  0  0  0  0  0  0  0  0
   -3.5643   -8.4275   34.5608 H   0  0  0  0  0  0  0  0  0  0  0  0
   -5.0284   -9.5779   32.9447 H   0  0  0  0  0  0  0  0  0  0  0  0
   -5.7966  -21.2617   32.6431 H   0  0  0  0  0  0  0  0  0  0  0  0
  -10.0834  -19.6626   31.9320 H   0  0  0  0  0  0  0  0  0  0  0  0
  -10.9374  -19.7079   33.3908 H   0  0  0  0  0  0  0  0  0  0  0  0
  -11.7606  -21.6581   32.3511 H   0  0  0  0  0  0  0  0  0  0  0  0
  -10.6778  -21.4846   31.0208 H   0  0  0  0  0  0  0  0  0  0  0  0
  -10.6907  -23.5306   33.2558 H   0  0  0  0  0  0  0  0  0  0  0  0
  -10.0278  -23.7514   31.7065 H   0  0  0  0  0  0  0  0  0  0  0  0
   -7.8401  -23.4698   32.5900 H   0  0  0  0  0  0  0  0  0  0  0  0
   -8.3571  -23.3367   34.1406 H   0  0  0  0  0  0  0  0  0  0  0  0
  1  2  2  0
  2  3  1  0
  3  4  1  0
  4  5  1  0
  5  6  1  0
  6  7  1  0
  7  8  2  0
  8  9  1  0
  9 10  2  0
 10 11  1  0
 11 12  2  0
 12 13  1  0
 13 14  2  0
  2 15  1  0
 15 16  2  0
 16 17  1  0
 17 18  1  0
 18 19  2  0
 19 20  1  0
 20 21  1  0
 21 22  1  0
 22 23  1  0
 14  6  1  0
 19 15  1  0
 14  9  1  0
 23 18  1  0
  3 24  1  0
  4 25  1  0
  4 26  1  0
  5 27  1  0
  5 28  1  0
  7 29  1  0
  8 30  1  0
 10 31  1  0
 11 32  1  0
 12 33  1  0
 13 34  1  0
 17 35  1  0
 20 36  1  0
 20 37  1  0
 21 38  1  0
 21 39  1  0
 22 40  1  0
 22 41  1  0
 23 42  1  0
 23 43  1  0
M  END
>  <Energy>  (1056) 
633.40801604027013

>  <compound_id>  (1056) 
46191

>  <target_id>  (1056) 
1

>  <reference_id>  (1056) 
123

>  <inspiration_ids>  (1056) 
[40, 123]

>  <energy_score>  (1056) 
548.5925100925303

>  <distance_score>  (1056) 
5.952577696714255

>  <path>  (1056) 
/opt/xchem-fragalysis-2/maxwin/BulkDock/SCRATCH/511023/C46191-P123/C46191-P123.minimised.mol

>  <scratch_subdir>  (1056) 
/opt/xchem-fragalysis-2/maxwin/BulkDock/SCRATCH/511023/C46191-P123

>  <fragmenstein_runtime>  (1056) 
16.821834564208984

>  <fragmenstein_outcome>  (1056) 
too moved

>  <fragmenstein_mode>  (1056) 
expansion

>  <fragmenstein_error>  (1056) 


$$$$
C46192-P40
     RDKit          3D

 40 43  0  0  0  0  0  0  0  0999 V2000
   -6.1613  -17.8142   32.4962 O   0  0  0  0  0  0  0  0  0  0  0  0
   -6.9658  -16.9782   32.5803 C   0  0  0  0  0  0  0  0  0  0  0  0
   -6.5483  -15.1771   31.7341 N   0  0  0  0  0  0  0  0  0  0  0  0
   -5.0220  -14.5311   30.6154 C   0  0  0  0  0  0  0  0  0  0  0  0
   -4.0875  -12.8728   29.4798 C   0  0  0  0  0  0  0  0  0  0  0  0
   -2.6134  -11.6024   29.6568 N   0  0  0  0  0  0  0  0  0  0  0  0
   -2.1256  -11.3009   28.4626 C   0  0  0  0  0  0  0  0  0  0  0  0
   -1.0461  -10.3368   28.6902 C   0  0  0  0  0  0  0  0  0  0  0  0
   -0.7384   -9.6045   29.7301 C   0  0  0  0  0  0  0  0  0  0  0  0
   -0.0677   -8.3588   29.9007 C   0  0  0  0  0  0  0  0  0  0  0  0
   -0.2475   -7.6418   31.0635 C   0  0  0  0  0  0  0  0  0  0  0  0
   -1.0950   -8.1754   31.9898 C   0  0  0  0  0  0  0  0  0  0  0  0
   -1.7621   -9.4018   31.7256 C   0  0  0  0  0  0  0  0  0  0  0  0
   -1.5885  -10.3281   30.5231 C   0  0  0  0  0  0  0  0  0  0  0  0
   -8.4811  -17.6592   33.6558 C   0  0  0  0  0  0  0  0  0  0  0  0
   -8.4671  -18.4519   34.8953 N   0  0  0  0  0  0  0  0  0  0  0  0
   -8.1009  -19.7832   34.4721 N   0  0  0  0  0  0  0  0  0  0  0  0
   -9.2090  -20.3062   33.8546 C   0  0  0  0  0  0  0  0  0  0  0  0
   -9.5990  -18.9905   33.4663 C   0  0  0  0  0  0  0  0  0  0  0  0
  -10.6404  -19.5661   32.4836 C   0  0  0  0  0  0  0  0  0  0  0  0
  -10.7225  -20.9775   31.2305 C   0  0  0  0  0  0  0  0  0  0  0  0
   -9.7628  -21.5837   32.3585 C   0  0  0  0  0  0  0  0  0  0  0  0
   -7.3708  -14.5720   31.8043 H   0  0  0  0  0  0  0  0  0  0  0  0
   -5.8397  -14.6149   29.8814 H   0  0  0  0  0  0  0  0  0  0  0  0
   -4.3401  -15.3859   30.6596 H   0  0  0  0  0  0  0  0  0  0  0  0
   -4.6809  -12.1180   28.9572 H   0  0  0  0  0  0  0  0  0  0  0  0
   -2.9841  -13.4359   29.3228 H   0  0  0  0  0  0  0  0  0  0  0  0
   -2.5140  -11.7409   27.5412 H   0  0  0  0  0  0  0  0  0  0  0  0
   -0.2859  -10.3451   28.0698 H   0  0  0  0  0  0  0  0  0  0  0  0
    0.4968   -7.9195   29.0860 H   0  0  0  0  0  0  0  0  0  0  0  0
    0.2240   -6.6783   31.2206 H   0  0  0  0  0  0  0  0  0  0  0  0
   -1.3249   -7.6340   32.9062 H   0  0  0  0  0  0  0  0  0  0  0  0
   -2.5415   -9.5046   32.4550 H   0  0  0  0  0  0  0  0  0  0  0  0
   -7.1983  -20.1842   34.7085 H   0  0  0  0  0  0  0  0  0  0  0  0
  -10.4266  -19.4014   31.5764 H   0  0  0  0  0  0  0  0  0  0  0  0
  -11.6509  -19.2482   32.8417 H   0  0  0  0  0  0  0  0  0  0  0  0
  -10.5523  -20.8441   30.1588 H   0  0  0  0  0  0  0  0  0  0  0  0
  -11.7493  -21.3937   31.1124 H   0  0  0  0  0  0  0  0  0  0  0  0
   -9.2269  -22.5259   32.4438 H   0  0  0  0  0  0  0  0  0  0  0  0
  -10.5533  -22.4292   32.4533 H   0  0  0  0  0  0  0  0  0  0  0  0
  1  2  2  0
  2  3  1  0
  3  4  1  0
  4  5  1  0
  5  6  1  0
  6  7  1  0
  7  8  2  0
  8  9  1  0
  9 10  2  0
 10 11  1  0
 11 12  2  0
 12 13  1  0
 13 14  2  0
  2 15  1  0
 15 16  2  0
 16 17  1  0
 17 18  1  0
 18 19  2  0
 19 20  1  0
 20 21  1  0
 21 22  1  0
 14  6  1  0
 19 15  1  0
 14  9  1  0
 22 18  1  0
  3 23  1  0
  4 24  1  0
  4 25  1  0
  5 26  1  0
  5 27  1  0
  7 28  1  0
  8 29  1  0
 10 30  1  0
 11 31  1  0
 12 32  1  0
 13 33  1  0
 17 34  1  0
 20 35  1  0
 20 36  1  0
 21 37  1  0
 21 38  1  0
 22 39  1  0
 22 40  1  0
M  END
>  <Energy>  (1057) 
1280.2657813609032

>  <compound_id>  (1057) 
46192

>  <target_id>  (1057) 
1

>  <reference_id>  (1057) 
40

>  <inspiration_ids>  (1057) 
[40, 123]

>  <energy_score>  (1057) 
1188.4731512868548

>  <distance_score>  (1057) 
5.338953091475411

>  <path>  (1057) 
/opt/xchem-fragalysis-2/maxwin/BulkDock/SCRATCH/511023/C46192-P40/C46192-P40.minimised.mol

>  <scratch_subdir>  (1057) 
/opt/xchem-fragalysis-2/maxwin/BulkDock/SCRATCH/511023/C46192-P40

>  <fragmenstein_runtime>  (1057) 
19.96242332458496

>  <fragmenstein_outcome>  (1057) 
too moved

>  <fragmenstein_mode>  (1057) 
expansion

>  <fragmenstein_error>  (1057) 


$$$$
C46192-P123
     RDKit          3D

 40 43  0  0  0  0  0  0  0  0999 V2000
   -6.2691  -16.2191   33.1196 O   0  0  0  0  0  0  0  0  0  0  0  0
   -7.3432  -15.6653   33.2796 C   0  0  0  0  0  0  0  0  0  0  0  0
   -7.7930  -14.0893   32.6989 N   0  0  0  0  0  0  0  0  0  0  0  0
   -6.7718  -12.7429   31.8030 C   0  0  0  0  0  0  0  0  0  0  0  0
   -5.5405  -11.1828   31.7444 C   0  0  0  0  0  0  0  0  0  0  0  0
   -4.7618   -9.7476   32.5815 N   0  0  0  0  0  0  0  0  0  0  0  0
   -3.7974   -8.9638   31.8985 C   0  0  0  0  0  0  0  0  0  0  0  0
   -2.5446   -8.8674   32.3994 C   0  0  0  0  0  0  0  0  0  0  0  0
   -2.8345   -8.8127   33.7440 C   0  0  0  0  0  0  0  0  0  0  0  0
   -2.0393   -8.2918   34.7867 C   0  0  0  0  0  0  0  0  0  0  0  0
   -2.5546   -8.1724   36.0580 C   0  0  0  0  0  0  0  0  0  0  0  0
   -3.8247   -8.6394   36.2912 C   0  0  0  0  0  0  0  0  0  0  0  0
   -4.6107   -9.1973   35.2622 C   0  0  0  0  0  0  0  0  0  0  0  0
   -4.2105   -9.2347   33.9209 C   0  0  0  0  0  0  0  0  0  0  0  0
   -8.2764  -16.5541   34.2438 C   0  0  0  0  0  0  0  0  0  0  0  0
   -7.5382  -17.5427   34.8520 N   0  0  0  0  0  0  0  0  0  0  0  0
   -8.0093  -17.6582   36.0855 N   0  0  0  0  0  0  0  0  0  0  0  0
   -9.1884  -17.0370   36.1832 C   0  0  0  0  0  0  0  0  0  0  0  0
   -9.5467  -16.6431   34.9148 C   0  0  0  0  0  0  0  0  0  0  0  0
  -10.9827  -16.2983   34.9863 C   0  0  0  0  0  0  0  0  0  0  0  0
  -11.3944  -16.4242   36.4876 C   0  0  0  0  0  0  0  0  0  0  0  0
  -10.1163  -16.7500   37.2772 C   0  0  0  0  0  0  0  0  0  0  0  0
   -8.7105  -13.8556   33.0491 H   0  0  0  0  0  0  0  0  0  0  0  0
   -6.5205  -13.3680   30.9159 H   0  0  0  0  0  0  0  0  0  0  0  0
   -7.4458  -11.9103   31.9993 H   0  0  0  0  0  0  0  0  0  0  0  0
   -4.6892  -11.5821   31.1671 H   0  0  0  0  0  0  0  0  0  0  0  0
   -6.0362  -10.6373   30.9374 H   0  0  0  0  0  0  0  0  0  0  0  0
   -4.1452   -8.4073   31.0886 H   0  0  0  0  0  0  0  0  0  0  0  0
   -1.6686   -8.4258   31.9415 H   0  0  0  0  0  0  0  0  0  0  0  0
   -1.0322   -7.9368   34.5749 H   0  0  0  0  0  0  0  0  0  0  0  0
   -1.9609   -7.7439   36.8575 H   0  0  0  0  0  0  0  0  0  0  0  0
   -4.2340   -8.6111   37.2980 H   0  0  0  0  0  0  0  0  0  0  0  0
   -5.5687   -9.5735   35.5769 H   0  0  0  0  0  0  0  0  0  0  0  0
   -7.4773  -18.1990   36.7605 H   0  0  0  0  0  0  0  0  0  0  0  0
  -11.2541  -15.3731   34.5055 H   0  0  0  0  0  0  0  0  0  0  0  0
  -11.6054  -17.0902   34.5838 H   0  0  0  0  0  0  0  0  0  0  0  0
  -11.9042  -15.5326   36.8631 H   0  0  0  0  0  0  0  0  0  0  0  0
  -12.1125  -17.2478   36.6064 H   0  0  0  0  0  0  0  0  0  0  0  0
   -9.7801  -15.8602   37.8219 H   0  0  0  0  0  0  0  0  0  0  0  0
  -10.2818  -17.5353   38.0124 H   0  0  0  0  0  0  0  0  0  0  0  0
  1  2  2  0
  2  3  1  0
  3  4  1  0
  4  5  1  0
  5  6  1  0
  6  7  1  0
  7  8  2  0
  8  9  1  0
  9 10  2  0
 10 11  1  0
 11 12  2  0
 12 13  1  0
 13 14  2  0
  2 15  1  0
 15 16  2  0
 16 17  1  0
 17 18  1  0
 18 19  2  0
 19 20  1  0
 20 21  1  0
 21 22  1  0
 14  6  1  0
 19 15  1  0
 14  9  1  0
 22 18  1  0
  3 23  1  0
  4 24  1  0
  4 25  1  0
  5 26  1  0
  5 27  1  0
  7 28  1  0
  8 29  1  0
 10 30  1  0
 11 31  1  0
 12 32  1  0
 13 33  1  0
 17 34  1  0
 20 35  1  0
 20 36  1  0
 21 37  1  0
 21 38  1  0
 22 39  1  0
 22 40  1  0
M  END
>  <Energy>  (1058) 
487.16797886190773

>  <compound_id>  (1058) 
46192

>  <target_id>  (1058) 
1

>  <reference_id>  (1058) 
123

>  <inspiration_ids>  (1058) 
[40, 123]

>  <energy_score>  (1058) 
395.37534878787164

>  <distance_score>  (1058) 
8.525699593788728

>  <path>  (1058) 
/opt/xchem-fragalysis-2/maxwin/BulkDock/SCRATCH/511023/C46192-P123/C46192-P123.minimised.mol

>  <scratch_subdir>  (1058) 
/opt/xchem-fragalysis-2/maxwin/BulkDock/SCRATCH/511023/C46192-P123

>  <fragmenstein_runtime>  (1058) 
22.45383596420288

>  <fragmenstein_outcome>  (1058) 
too moved

>  <fragmenstein_mode>  (1058) 
expansion

>  <fragmenstein_error>  (1058) 


$$$$
C46192-P40
     RDKit          3D

 40 43  0  0  0  0  0  0  0  0999 V2000
   -6.1613  -17.8142   32.4962 O   0  0  0  0  0  0  0  0  0  0  0  0
   -6.9658  -16.9782   32.5803 C   0  0  0  0  0  0  0  0  0  0  0  0
   -6.5483  -15.1771   31.7341 N   0  0  0  0  0  0  0  0  0  0  0  0
   -5.0220  -14.5311   30.6154 C   0  0  0  0  0  0  0  0  0  0  0  0
   -4.0875  -12.8728   29.4798 C   0  0  0  0  0  0  0  0  0  0  0  0
   -2.6134  -11.6024   29.6568 N   0  0  0  0  0  0  0  0  0  0  0  0
   -2.1256  -11.3009   28.4626 C   0  0  0  0  0  0  0  0  0  0  0  0
   -1.0461  -10.3368   28.6902 C   0  0  0  0  0  0  0  0  0  0  0  0
   -0.7384   -9.6045   29.7301 C   0  0  0  0  0  0  0  0  0  0  0  0
   -0.0677   -8.3588   29.9007 C   0  0  0  0  0  0  0  0  0  0  0  0
   -0.2475   -7.6418   31.0635 C   0  0  0  0  0  0  0  0  0  0  0  0
   -1.0950   -8.1754   31.9898 C   0  0  0  0  0  0  0  0  0  0  0  0
   -1.7621   -9.4018   31.7256 C   0  0  0  0  0  0  0  0  0  0  0  0
   -1.5885  -10.3281   30.5231 C   0  0  0  0  0  0  0  0  0  0  0  0
   -8.4811  -17.6592   33.6558 C   0  0  0  0  0  0  0  0  0  0  0  0
   -8.4671  -18.4519   34.8953 N   0  0  0  0  0  0  0  0  0  0  0  0
   -8.1009  -19.7832   34.4721 N   0  0  0  0  0  0  0  0  0  0  0  0
   -9.2090  -20.3062   33.8546 C   0  0  0  0  0  0  0  0  0  0  0  0
   -9.5990  -18.9905   33.4663 C   0  0  0  0  0  0  0  0  0  0  0  0
  -10.6404  -19.5661   32.4836 C   0  0  0  0  0  0  0  0  0  0  0  0
  -10.7225  -20.9775   31.2305 C   0  0  0  0  0  0  0  0  0  0  0  0
   -9.7628  -21.5837   32.3585 C   0  0  0  0  0  0  0  0  0  0  0  0
   -7.3708  -14.5720   31.8043 H   0  0  0  0  0  0  0  0  0  0  0  0
   -5.8397  -14.6149   29.8814 H   0  0  0  0  0  0  0  0  0  0  0  0
   -4.3401  -15.3859   30.6596 H   0  0  0  0  0  0  0  0  0  0  0  0
   -4.6809  -12.1180   28.9572 H   0  0  0  0  0  0  0  0  0  0  0  0
   -2.9841  -13.4359   29.3228 H   0  0  0  0  0  0  0  0  0  0  0  0
   -2.5140  -11.7409   27.5412 H   0  0  0  0  0  0  0  0  0  0  0  0
   -0.2859  -10.3451   28.0698 H   0  0  0  0  0  0  0  0  0  0  0  0
    0.4968   -7.9195   29.0860 H   0  0  0  0  0  0  0  0  0  0  0  0
    0.2240   -6.6783   31.2206 H   0  0  0  0  0  0  0  0  0  0  0  0
   -1.3249   -7.6340   32.9062 H   0  0  0  0  0  0  0  0  0  0  0  0
   -2.5415   -9.5046   32.4550 H   0  0  0  0  0  0  0  0  0  0  0  0
   -7.1983  -20.1842   34.7085 H   0  0  0  0  0  0  0  0  0  0  0  0
  -10.4266  -19.4014   31.5764 H   0  0  0  0  0  0  0  0  0  0  0  0
  -11.6509  -19.2482   32.8417 H   0  0  0  0  0  0  0  0  0  0  0  0
  -10.5523  -20.8441   30.1588 H   0  0  0  0  0  0  0  0  0  0  0  0
  -11.7493  -21.3937   31.1124 H   0  0  0  0  0  0  0  0  0  0  0  0
   -9.2269  -22.5259   32.4438 H   0  0  0  0  0  0  0  0  0  0  0  0
  -10.5533  -22.4292   32.4533 H   0  0  0  0  0  0  0  0  0  0  0  0
  1  2  2  0
  2  3  1  0
  3  4  1  0
  4  5  1  0
  5  6  1  0
  6  7  1  0
  7  8  2  0
  8  9  1  0
  9 10  2  0
 10 11  1  0
 11 12  2  0
 12 13  1  0
 13 14  2  0
  2 15  1  0
 15 16  2  0
 16 17  1  0
 17 18  1  0
 18 19  2  0
 19 20  1  0
 20 21  1  0
 21 22  1  0
 14  6  1  0
 19 15  1  0
 14  9  1  0
 22 18  1  0
  3 23  1  0
  4 24  1  0
  4 25  1  0
  5 26  1  0
  5 27  1  0
  7 28  1  0
  8 29  1  0
 10 30  1  0
 11 31  1  0
 12 32  1  0
 13 33  1  0
 17 34  1  0
 20 35  1  0
 20 36  1  0
 21 37  1  0
 21 38  1  0
 22 39  1  0
 22 40  1  0
M  END
>  <Energy>  (1059) 
1280.2657813609032

>  <compound_id>  (1059) 
46192

>  <target_id>  (1059) 
1

>  <reference_id>  (1059) 
40

>  <inspiration_ids>  (1059) 
[40, 123]

>  <energy_score>  (1059) 
1188.4731512868548

>  <distance_score>  (1059) 
5.338953091475411

>  <path>  (1059) 
/opt/xchem-fragalysis-2/maxwin/BulkDock/SCRATCH/511023/C46192-P40/C46192-P40.minimised.mol

>  <scratch_subdir>  (1059) 
/opt/xchem-fragalysis-2/maxwin/BulkDock/SCRATCH/511023/C46192-P40

>  <fragmenstein_runtime>  (1059) 
18.94986057281494

>  <fragmenstein_outcome>  (1059) 
too moved

>  <fragmenstein_mode>  (1059) 
expansion

>  <fragmenstein_error>  (1059) 


$$$$
C46192-P123
     RDKit          3D

 40 43  0  0  0  0  0  0  0  0999 V2000
   -6.2691  -16.2191   33.1196 O   0  0  0  0  0  0  0  0  0  0  0  0
   -7.3432  -15.6653   33.2796 C   0  0  0  0  0  0  0  0  0  0  0  0
   -7.7930  -14.0893   32.6989 N   0  0  0  0  0  0  0  0  0  0  0  0
   -6.7718  -12.7429   31.8030 C   0  0  0  0  0  0  0  0  0  0  0  0
   -5.5405  -11.1828   31.7444 C   0  0  0  0  0  0  0  0  0  0  0  0
   -4.7618   -9.7476   32.5815 N   0  0  0  0  0  0  0  0  0  0  0  0
   -3.7974   -8.9638   31.8985 C   0  0  0  0  0  0  0  0  0  0  0  0
   -2.5446   -8.8674   32.3994 C   0  0  0  0  0  0  0  0  0  0  0  0
   -2.8345   -8.8127   33.7440 C   0  0  0  0  0  0  0  0  0  0  0  0
   -2.0393   -8.2918   34.7867 C   0  0  0  0  0  0  0  0  0  0  0  0
   -2.5546   -8.1724   36.0580 C   0  0  0  0  0  0  0  0  0  0  0  0
   -3.8247   -8.6394   36.2912 C   0  0  0  0  0  0  0  0  0  0  0  0
   -4.6107   -9.1973   35.2622 C   0  0  0  0  0  0  0  0  0  0  0  0
   -4.2105   -9.2347   33.9209 C   0  0  0  0  0  0  0  0  0  0  0  0
   -8.2764  -16.5541   34.2438 C   0  0  0  0  0  0  0  0  0  0  0  0
   -7.5382  -17.5427   34.8520 N   0  0  0  0  0  0  0  0  0  0  0  0
   -8.0093  -17.6582   36.0855 N   0  0  0  0  0  0  0  0  0  0  0  0
   -9.1884  -17.0370   36.1832 C   0  0  0  0  0  0  0  0  0  0  0  0
   -9.5467  -16.6431   34.9148 C   0  0  0  0  0  0  0  0  0  0  0  0
  -10.9827  -16.2983   34.9863 C   0  0  0  0  0  0  0  0  0  0  0  0
  -11.3944  -16.4242   36.4876 C   0  0  0  0  0  0  0  0  0  0  0  0
  -10.1163  -16.7500   37.2772 C   0  0  0  0  0  0  0  0  0  0  0  0
   -8.7105  -13.8556   33.0491 H   0  0  0  0  0  0  0  0  0  0  0  0
   -6.5205  -13.3680   30.9159 H   0  0  0  0  0  0  0  0  0  0  0  0
   -7.4458  -11.9103   31.9993 H   0  0  0  0  0  0  0  0  0  0  0  0
   -4.6892  -11.5821   31.1671 H   0  0  0  0  0  0  0  0  0  0  0  0
   -6.0362  -10.6373   30.9374 H   0  0  0  0  0  0  0  0  0  0  0  0
   -4.1452   -8.4073   31.0886 H   0  0  0  0  0  0  0  0  0  0  0  0
   -1.6686   -8.4258   31.9415 H   0  0  0  0  0  0  0  0  0  0  0  0
   -1.0322   -7.9368   34.5749 H   0  0  0  0  0  0  0  0  0  0  0  0
   -1.9609   -7.7439   36.8575 H   0  0  0  0  0  0  0  0  0  0  0  0
   -4.2340   -8.6111   37.2980 H   0  0  0  0  0  0  0  0  0  0  0  0
   -5.5687   -9.5735   35.5769 H   0  0  0  0  0  0  0  0  0  0  0  0
   -7.4773  -18.1990   36.7605 H   0  0  0  0  0  0  0  0  0  0  0  0
  -11.2541  -15.3731   34.5055 H   0  0  0  0  0  0  0  0  0  0  0  0
  -11.6054  -17.0902   34.5838 H   0  0  0  0  0  0  0  0  0  0  0  0
  -11.9042  -15.5326   36.8631 H   0  0  0  0  0  0  0  0  0  0  0  0
  -12.1125  -17.2478   36.6064 H   0  0  0  0  0  0  0  0  0  0  0  0
   -9.7801  -15.8602   37.8219 H   0  0  0  0  0  0  0  0  0  0  0  0
  -10.2818  -17.5353   38.0124 H   0  0  0  0  0  0  0  0  0  0  0  0
  1  2  2  0
  2  3  1  0
  3  4  1  0
  4  5  1  0
  5  6  1  0
  6  7  1  0
  7  8  2  0
  8  9  1  0
  9 10  2  0
 10 11  1  0
 11 12  2  0
 12 13  1  0
 13 14  2  0
  2 15  1  0
 15 16  2  0
 16 17  1  0
 17 18  1  0
 18 19  2  0
 19 20  1  0
 20 21  1  0
 21 22  1  0
 14  6  1  0
 19 15  1  0
 14  9  1  0
 22 18  1  0
  3 23  1  0
  4 24  1  0
  4 25  1  0
  5 26  1  0
  5 27  1  0
  7 28  1  0
  8 29  1  0
 10 30  1  0
 11 31  1  0
 12 32  1  0
 13 33  1  0
 17 34  1  0
 20 35  1  0
 20 36  1  0
 21 37  1  0
 21 38  1  0
 22 39  1  0
 22 40  1  0
M  END
>  <Energy>  (1060) 
487.16797886190773

>  <compound_id>  (1060) 
46192

>  <target_id>  (1060) 
1

>  <reference_id>  (1060) 
123

>  <inspiration_ids>  (1060) 
[40, 123]

>  <energy_score>  (1060) 
395.37534878787164

>  <distance_score>  (1060) 
8.525699593788728

>  <path>  (1060) 
/opt/xchem-fragalysis-2/maxwin/BulkDock/SCRATCH/511023/C46192-P123/C46192-P123.minimised.mol

>  <scratch_subdir>  (1060) 
/opt/xchem-fragalysis-2/maxwin/BulkDock/SCRATCH/511023/C46192-P123

>  <fragmenstein_runtime>  (1060) 
26.82716655731201

>  <fragmenstein_outcome>  (1060) 
too moved

>  <fragmenstein_mode>  (1060) 
expansion

>  <fragmenstein_error>  (1060) 


$$$$
C46193-P40
     RDKit          3D

 40 43  0  0  0  0  0  0  0  0999 V2000
   -5.3580  -19.7265   33.0418 O   0  0  0  0  0  0  0  0  0  0  0  0
   -6.4925  -19.2895   33.0036 C   0  0  0  0  0  0  0  0  0  0  0  0
   -6.7576  -17.4437   32.3342 N   0  0  0  0  0  0  0  0  0  0  0  0
   -5.4230  -15.9729   31.4753 C   0  0  0  0  0  0  0  0  0  0  0  0
   -4.8354  -14.1451   30.4002 C   0  0  0  0  0  0  0  0  0  0  0  0
   -3.7337  -12.5471   29.4623 N   0  0  0  0  0  0  0  0  0  0  0  0
   -2.3640  -12.3771   29.0831 C   0  0  0  0  0  0  0  0  0  0  0  0
   -1.2740  -11.7406   30.3991 C   0  0  0  0  0  0  0  0  0  0  0  0
   -1.4621  -10.4577   30.6237 C   0  0  0  0  0  0  0  0  0  0  0  0
   -1.4126   -9.2928   31.4467 C   0  0  0  0  0  0  0  0  0  0  0  0
   -0.7303   -8.3498   30.7373 C   0  0  0  0  0  0  0  0  0  0  0  0
   -0.4242   -8.7798   29.4736 C   0  0  0  0  0  0  0  0  0  0  0  0
    0.8741   -7.7437   28.6542 Br  0  0  0  0  0  0  0  0  0  0  0  0
   -1.1313  -10.0927   28.9736 C   0  0  0  0  0  0  0  0  0  0  0  0
   -2.4924  -11.1069   29.6718 C   0  0  0  0  0  0  0  0  0  0  0  0
   -7.7485  -20.7356   33.5145 C   0  0  0  0  0  0  0  0  0  0  0  0
   -7.3143  -21.9183   34.2604 N   0  0  0  0  0  0  0  0  0  0  0  0
   -7.6864  -23.3118   33.8276 N   0  0  0  0  0  0  0  0  0  0  0  0
   -8.9824  -23.3575   32.9801 C   0  0  0  0  0  0  0  0  0  0  0  0
   -9.1189  -21.6602   32.5463 C   0  0  0  0  0  0  0  0  0  0  0  0
  -10.5113  -21.2844   31.2898 C   0  0  0  0  0  0  0  0  0  0  0  0
  -11.2182  -22.6245   31.3319 C   0  0  0  0  0  0  0  0  0  0  0  0
  -10.1521  -23.9177   32.2307 C   0  0  0  0  0  0  0  0  0  0  0  0
   -7.7102  -17.2025   32.4434 H   0  0  0  0  0  0  0  0  0  0  0  0
   -5.6220  -16.3005   30.4263 H   0  0  0  0  0  0  0  0  0  0  0  0
   -6.1455  -15.2323   31.7797 H   0  0  0  0  0  0  0  0  0  0  0  0
   -5.7662  -13.9009   29.8631 H   0  0  0  0  0  0  0  0  0  0  0  0
   -3.8692  -14.7679   30.2865 H   0  0  0  0  0  0  0  0  0  0  0  0
   -2.5108  -11.9744   28.0153 H   0  0  0  0  0  0  0  0  0  0  0  0
   -0.1936  -11.9256   30.5270 H   0  0  0  0  0  0  0  0  0  0  0  0
   -1.4411   -9.2054   32.5186 H   0  0  0  0  0  0  0  0  0  0  0  0
   -0.3460   -7.4524   31.2041 H   0  0  0  0  0  0  0  0  0  0  0  0
   -0.9698  -10.4543   28.0053 H   0  0  0  0  0  0  0  0  0  0  0  0
   -6.5137  -21.8962   34.8766 H   0  0  0  0  0  0  0  0  0  0  0  0
  -10.4316  -21.1472   30.1971 H   0  0  0  0  0  0  0  0  0  0  0  0
  -10.8768  -20.3030   31.4843 H   0  0  0  0  0  0  0  0  0  0  0  0
  -10.9384  -22.8591   30.2568 H   0  0  0  0  0  0  0  0  0  0  0  0
  -12.1553  -22.5578   30.8197 H   0  0  0  0  0  0  0  0  0  0  0  0
   -9.4930  -24.4605   31.5929 H   0  0  0  0  0  0  0  0  0  0  0  0
  -10.7539  -24.5748   32.7801 H   0  0  0  0  0  0  0  0  0  0  0  0
  1  2  2  0
  2  3  1  0
  3  4  1  0
  4  5  1  0
  5  6  1  0
  6  7  1  0
  7  8  2  0
  8  9  1  0
  9 10  2  0
 10 11  1  0
 11 12  2  0
 12 13  1  0
 12 14  1  0
 14 15  2  0
  2 16  1  0
 16 17  1  0
 17 18  1  0
 18 19  2  0
 19 20  1  0
 20 21  1  0
 21 22  1  0
 22 23  1  0
 15  6  1  0
 20 16  2  0
 15  9  1  0
 23 19  1  0
  3 24  1  0
  4 25  1  0
  4 26  1  0
  5 27  1  0
  5 28  1  0
  7 29  1  0
  8 30  1  0
 10 31  1  0
 11 32  1  0
 14 33  1  0
 17 34  1  0
 21 35  1  0
 21 36  1  0
 22 37  1  0
 22 38  1  0
 23 39  1  0
 23 40  1  0
M  END
>  <Energy>  (1061) 
1886.3644746344366

>  <compound_id>  (1061) 
46193

>  <target_id>  (1061) 
1

>  <reference_id>  (1061) 
40

>  <inspiration_ids>  (1061) 
[40, 123]

>  <energy_score>  (1061) 
1849.8942683036407

>  <distance_score>  (1061) 
5.100773483773603

>  <path>  (1061) 
/opt/xchem-fragalysis-2/maxwin/BulkDock/SCRATCH/511023/C46193-P40/C46193-P40.minimised.mol

>  <scratch_subdir>  (1061) 
/opt/xchem-fragalysis-2/maxwin/BulkDock/SCRATCH/511023/C46193-P40

>  <fragmenstein_runtime>  (1061) 
21.796050310134888

>  <fragmenstein_outcome>  (1061) 
too moved

>  <fragmenstein_mode>  (1061) 
expansion

>  <fragmenstein_error>  (1061) 


$$$$
C46193-P123
     RDKit          3D

 40 43  0  0  0  0  0  0  0  0999 V2000
   -5.9559  -15.2720   30.2110 O   0  0  0  0  0  0  0  0  0  0  0  0
   -6.2868  -14.3011   30.8327 C   0  0  0  0  0  0  0  0  0  0  0  0
   -5.4223  -12.7544   30.7055 N   0  0  0  0  0  0  0  0  0  0  0  0
   -3.9141  -12.3009   29.8351 C   0  0  0  0  0  0  0  0  0  0  0  0
   -2.1969  -11.3003   29.9780 C   0  0  0  0  0  0  0  0  0  0  0  0
   -1.0749  -10.2290   28.9170 N   0  0  0  0  0  0  0  0  0  0  0  0
    0.2502  -10.4900   28.6965 C   0  0  0  0  0  0  0  0  0  0  0  0
    0.6272  -10.0316   29.8981 C   0  0  0  0  0  0  0  0  0  0  0  0
   -0.3190   -8.8803   30.2844 C   0  0  0  0  0  0  0  0  0  0  0  0
   -0.3859   -7.7771   31.1653 C   0  0  0  0  0  0  0  0  0  0  0  0
   -0.4463   -6.5156   30.5764 C   0  0  0  0  0  0  0  0  0  0  0  0
   -0.4780   -6.4042   29.1846 C   0  0  0  0  0  0  0  0  0  0  0  0
   -0.2092   -4.6764   28.4577 Br  0  0  0  0  0  0  0  0  0  0  0  0
   -0.6719   -7.5272   28.3519 C   0  0  0  0  0  0  0  0  0  0  0  0
   -0.7965   -8.7677   29.0419 C   0  0  0  0  0  0  0  0  0  0  0  0
   -7.7331  -14.6525   32.1133 C   0  0  0  0  0  0  0  0  0  0  0  0
   -6.9192  -15.9443   33.0336 N   0  0  0  0  0  0  0  0  0  0  0  0
   -7.3854  -16.4900   34.1367 N   0  0  0  0  0  0  0  0  0  0  0  0
   -8.6432  -16.4845   33.8600 C   0  0  0  0  0  0  0  0  0  0  0  0
   -8.9469  -15.5184   32.8077 C   0  0  0  0  0  0  0  0  0  0  0  0
  -10.5009  -15.1663   33.2634 C   0  0  0  0  0  0  0  0  0  0  0  0
  -10.7976  -15.8914   34.6273 C   0  0  0  0  0  0  0  0  0  0  0  0
   -9.7099  -16.9319   34.7671 C   0  0  0  0  0  0  0  0  0  0  0  0
   -5.8178  -12.1032   31.3766 H   0  0  0  0  0  0  0  0  0  0  0  0
   -4.3034  -12.1049   28.8633 H   0  0  0  0  0  0  0  0  0  0  0  0
   -4.0954  -11.5656   30.5896 H   0  0  0  0  0  0  0  0  0  0  0  0
   -2.3139  -10.5389   30.7544 H   0  0  0  0  0  0  0  0  0  0  0  0
   -2.6223  -11.1731   29.0188 H   0  0  0  0  0  0  0  0  0  0  0  0
    0.7692  -11.0656   27.9586 H   0  0  0  0  0  0  0  0  0  0  0  0
    1.6000  -10.2620   30.2991 H   0  0  0  0  0  0  0  0  0  0  0  0
   -0.1741   -7.8492   32.2239 H   0  0  0  0  0  0  0  0  0  0  0  0
   -0.3307   -5.6386   31.2087 H   0  0  0  0  0  0  0  0  0  0  0  0
   -0.7115   -7.4383   27.2740 H   0  0  0  0  0  0  0  0  0  0  0  0
   -6.0143  -16.2492   32.6878 H   0  0  0  0  0  0  0  0  0  0  0  0
  -11.2439  -15.3881   32.5167 H   0  0  0  0  0  0  0  0  0  0  0  0
  -10.6644  -14.1392   33.5376 H   0  0  0  0  0  0  0  0  0  0  0  0
  -11.8117  -16.3030   34.6834 H   0  0  0  0  0  0  0  0  0  0  0  0
  -10.7516  -15.1929   35.4688 H   0  0  0  0  0  0  0  0  0  0  0  0
  -10.1030  -17.8556   34.3925 H   0  0  0  0  0  0  0  0  0  0  0  0
   -9.3882  -17.0564   35.8041 H   0  0  0  0  0  0  0  0  0  0  0  0
  1  2  2  0
  2  3  1  0
  3  4  1  0
  4  5  1  0
  5  6  1  0
  6  7  1  0
  7  8  2  0
  8  9  1  0
  9 10  2  0
 10 11  1  0
 11 12  2  0
 12 13  1  0
 12 14  1  0
 14 15  2  0
  2 16  1  0
 16 17  1  0
 17 18  1  0
 18 19  2  0
 19 20  1  0
 20 21  1  0
 21 22  1  0
 22 23  1  0
 15  6  1  0
 20 16  2  0
 15  9  1  0
 23 19  1  0
  3 24  1  0
  4 25  1  0
  4 26  1  0
  5 27  1  0
  5 28  1  0
  7 29  1  0
  8 30  1  0
 10 31  1  0
 11 32  1  0
 14 33  1  0
 17 34  1  0
 21 35  1  0
 21 36  1  0
 22 37  1  0
 22 38  1  0
 23 39  1  0
 23 40  1  0
M  END
>  <Energy>  (1062) 
633.74450848203799

>  <compound_id>  (1062) 
46193

>  <target_id>  (1062) 
1

>  <reference_id>  (1062) 
123

>  <inspiration_ids>  (1062) 
[40, 123]

>  <energy_score>  (1062) 
597.2743021512404

>  <distance_score>  (1062) 
7.0426552618751685

>  <path>  (1062) 
/opt/xchem-fragalysis-2/maxwin/BulkDock/SCRATCH/511023/C46193-P123/C46193-P123.minimised.mol

>  <scratch_subdir>  (1062) 
/opt/xchem-fragalysis-2/maxwin/BulkDock/SCRATCH/511023/C46193-P123

>  <fragmenstein_runtime>  (1062) 
16.07219123840332

>  <fragmenstein_outcome>  (1062) 
too moved

>  <fragmenstein_mode>  (1062) 
expansion

>  <fragmenstein_error>  (1062) 


$$$$
C46193-P40
     RDKit          3D

 40 43  0  0  0  0  0  0  0  0999 V2000
   -5.3580  -19.7265   33.0418 O   0  0  0  0  0  0  0  0  0  0  0  0
   -6.4925  -19.2895   33.0036 C   0  0  0  0  0  0  0  0  0  0  0  0
   -6.7576  -17.4437   32.3342 N   0  0  0  0  0  0  0  0  0  0  0  0
   -5.4230  -15.9729   31.4753 C   0  0  0  0  0  0  0  0  0  0  0  0
   -4.8354  -14.1451   30.4002 C   0  0  0  0  0  0  0  0  0  0  0  0
   -3.7337  -12.5471   29.4623 N   0  0  0  0  0  0  0  0  0  0  0  0
   -2.3640  -12.3771   29.0831 C   0  0  0  0  0  0  0  0  0  0  0  0
   -1.2740  -11.7406   30.3991 C   0  0  0  0  0  0  0  0  0  0  0  0
   -1.4621  -10.4577   30.6237 C   0  0  0  0  0  0  0  0  0  0  0  0
   -1.4126   -9.2928   31.4467 C   0  0  0  0  0  0  0  0  0  0  0  0
   -0.7303   -8.3498   30.7373 C   0  0  0  0  0  0  0  0  0  0  0  0
   -0.4242   -8.7798   29.4736 C   0  0  0  0  0  0  0  0  0  0  0  0
    0.8741   -7.7437   28.6542 Br  0  0  0  0  0  0  0  0  0  0  0  0
   -1.1313  -10.0927   28.9736 C   0  0  0  0  0  0  0  0  0  0  0  0
   -2.4924  -11.1069   29.6718 C   0  0  0  0  0  0  0  0  0  0  0  0
   -7.7485  -20.7356   33.5145 C   0  0  0  0  0  0  0  0  0  0  0  0
   -7.3143  -21.9183   34.2604 N   0  0  0  0  0  0  0  0  0  0  0  0
   -7.6864  -23.3118   33.8276 N   0  0  0  0  0  0  0  0  0  0  0  0
   -8.9824  -23.3575   32.9801 C   0  0  0  0  0  0  0  0  0  0  0  0
   -9.1189  -21.6602   32.5463 C   0  0  0  0  0  0  0  0  0  0  0  0
  -10.5113  -21.2844   31.2898 C   0  0  0  0  0  0  0  0  0  0  0  0
  -11.2182  -22.6245   31.3319 C   0  0  0  0  0  0  0  0  0  0  0  0
  -10.1521  -23.9177   32.2307 C   0  0  0  0  0  0  0  0  0  0  0  0
   -7.7102  -17.2025   32.4434 H   0  0  0  0  0  0  0  0  0  0  0  0
   -5.6220  -16.3005   30.4263 H   0  0  0  0  0  0  0  0  0  0  0  0
   -6.1455  -15.2323   31.7797 H   0  0  0  0  0  0  0  0  0  0  0  0
   -5.7662  -13.9009   29.8631 H   0  0  0  0  0  0  0  0  0  0  0  0
   -3.8692  -14.7679   30.2865 H   0  0  0  0  0  0  0  0  0  0  0  0
   -2.5108  -11.9744   28.0153 H   0  0  0  0  0  0  0  0  0  0  0  0
   -0.1936  -11.9256   30.5270 H   0  0  0  0  0  0  0  0  0  0  0  0
   -1.4411   -9.2054   32.5186 H   0  0  0  0  0  0  0  0  0  0  0  0
   -0.3460   -7.4524   31.2041 H   0  0  0  0  0  0  0  0  0  0  0  0
   -0.9698  -10.4543   28.0053 H   0  0  0  0  0  0  0  0  0  0  0  0
   -6.5137  -21.8962   34.8766 H   0  0  0  0  0  0  0  0  0  0  0  0
  -10.4316  -21.1472   30.1971 H   0  0  0  0  0  0  0  0  0  0  0  0
  -10.8768  -20.3030   31.4843 H   0  0  0  0  0  0  0  0  0  0  0  0
  -10.9384  -22.8591   30.2568 H   0  0  0  0  0  0  0  0  0  0  0  0
  -12.1553  -22.5578   30.8197 H   0  0  0  0  0  0  0  0  0  0  0  0
   -9.4930  -24.4605   31.5929 H   0  0  0  0  0  0  0  0  0  0  0  0
  -10.7539  -24.5748   32.7801 H   0  0  0  0  0  0  0  0  0  0  0  0
  1  2  2  0
  2  3  1  0
  3  4  1  0
  4  5  1  0
  5  6  1  0
  6  7  1  0
  7  8  2  0
  8  9  1  0
  9 10  2  0
 10 11  1  0
 11 12  2  0
 12 13  1  0
 12 14  1  0
 14 15  2  0
  2 16  1  0
 16 17  1  0
 17 18  1  0
 18 19  2  0
 19 20  1  0
 20 21  1  0
 21 22  1  0
 22 23  1  0
 15  6  1  0
 20 16  2  0
 15  9  1  0
 23 19  1  0
  3 24  1  0
  4 25  1  0
  4 26  1  0
  5 27  1  0
  5 28  1  0
  7 29  1  0
  8 30  1  0
 10 31  1  0
 11 32  1  0
 14 33  1  0
 17 34  1  0
 21 35  1  0
 21 36  1  0
 22 37  1  0
 22 38  1  0
 23 39  1  0
 23 40  1  0
M  END
>  <Energy>  (1063) 
1886.3644746344366

>  <compound_id>  (1063) 
46193

>  <target_id>  (1063) 
1

>  <reference_id>  (1063) 
40

>  <inspiration_ids>  (1063) 
[40, 123]

>  <energy_score>  (1063) 
1849.8942683036407

>  <distance_score>  (1063) 
5.100773483773603

>  <path>  (1063) 
/opt/xchem-fragalysis-2/maxwin/BulkDock/SCRATCH/511023/C46193-P40/C46193-P40.minimised.mol

>  <scratch_subdir>  (1063) 
/opt/xchem-fragalysis-2/maxwin/BulkDock/SCRATCH/511023/C46193-P40

>  <fragmenstein_runtime>  (1063) 
20.683074235916138

>  <fragmenstein_outcome>  (1063) 
too moved

>  <fragmenstein_mode>  (1063) 
expansion

>  <fragmenstein_error>  (1063) 


$$$$
C46193-P123
     RDKit          3D

 40 43  0  0  0  0  0  0  0  0999 V2000
   -5.9559  -15.2720   30.2110 O   0  0  0  0  0  0  0  0  0  0  0  0
   -6.2868  -14.3011   30.8327 C   0  0  0  0  0  0  0  0  0  0  0  0
   -5.4223  -12.7544   30.7055 N   0  0  0  0  0  0  0  0  0  0  0  0
   -3.9141  -12.3009   29.8351 C   0  0  0  0  0  0  0  0  0  0  0  0
   -2.1969  -11.3003   29.9780 C   0  0  0  0  0  0  0  0  0  0  0  0
   -1.0749  -10.2290   28.9170 N   0  0  0  0  0  0  0  0  0  0  0  0
    0.2502  -10.4900   28.6965 C   0  0  0  0  0  0  0  0  0  0  0  0
    0.6272  -10.0316   29.8981 C   0  0  0  0  0  0  0  0  0  0  0  0
   -0.3190   -8.8803   30.2844 C   0  0  0  0  0  0  0  0  0  0  0  0
   -0.3859   -7.7771   31.1653 C   0  0  0  0  0  0  0  0  0  0  0  0
   -0.4463   -6.5156   30.5764 C   0  0  0  0  0  0  0  0  0  0  0  0
   -0.4780   -6.4042   29.1846 C   0  0  0  0  0  0  0  0  0  0  0  0
   -0.2092   -4.6764   28.4577 Br  0  0  0  0  0  0  0  0  0  0  0  0
   -0.6719   -7.5272   28.3519 C   0  0  0  0  0  0  0  0  0  0  0  0
   -0.7965   -8.7677   29.0419 C   0  0  0  0  0  0  0  0  0  0  0  0
   -7.7331  -14.6525   32.1133 C   0  0  0  0  0  0  0  0  0  0  0  0
   -6.9192  -15.9443   33.0336 N   0  0  0  0  0  0  0  0  0  0  0  0
   -7.3854  -16.4900   34.1367 N   0  0  0  0  0  0  0  0  0  0  0  0
   -8.6432  -16.4845   33.8600 C   0  0  0  0  0  0  0  0  0  0  0  0
   -8.9469  -15.5184   32.8077 C   0  0  0  0  0  0  0  0  0  0  0  0
  -10.5009  -15.1663   33.2634 C   0  0  0  0  0  0  0  0  0  0  0  0
  -10.7976  -15.8914   34.6273 C   0  0  0  0  0  0  0  0  0  0  0  0
   -9.7099  -16.9319   34.7671 C   0  0  0  0  0  0  0  0  0  0  0  0
   -5.8178  -12.1032   31.3766 H   0  0  0  0  0  0  0  0  0  0  0  0
   -4.3034  -12.1049   28.8633 H   0  0  0  0  0  0  0  0  0  0  0  0
   -4.0954  -11.5656   30.5896 H   0  0  0  0  0  0  0  0  0  0  0  0
   -2.3139  -10.5389   30.7544 H   0  0  0  0  0  0  0  0  0  0  0  0
   -2.6223  -11.1731   29.0188 H   0  0  0  0  0  0  0  0  0  0  0  0
    0.7692  -11.0656   27.9586 H   0  0  0  0  0  0  0  0  0  0  0  0
    1.6000  -10.2620   30.2991 H   0  0  0  0  0  0  0  0  0  0  0  0
   -0.1741   -7.8492   32.2239 H   0  0  0  0  0  0  0  0  0  0  0  0
   -0.3307   -5.6386   31.2087 H   0  0  0  0  0  0  0  0  0  0  0  0
   -0.7115   -7.4383   27.2740 H   0  0  0  0  0  0  0  0  0  0  0  0
   -6.0143  -16.2492   32.6878 H   0  0  0  0  0  0  0  0  0  0  0  0
  -11.2439  -15.3881   32.5167 H   0  0  0  0  0  0  0  0  0  0  0  0
  -10.6644  -14.1392   33.5376 H   0  0  0  0  0  0  0  0  0  0  0  0
  -11.8117  -16.3030   34.6834 H   0  0  0  0  0  0  0  0  0  0  0  0
  -10.7516  -15.1929   35.4688 H   0  0  0  0  0  0  0  0  0  0  0  0
  -10.1030  -17.8556   34.3925 H   0  0  0  0  0  0  0  0  0  0  0  0
   -9.3882  -17.0564   35.8041 H   0  0  0  0  0  0  0  0  0  0  0  0
  1  2  2  0
  2  3  1  0
  3  4  1  0
  4  5  1  0
  5  6  1  0
  6  7  1  0
  7  8  2  0
  8  9  1  0
  9 10  2  0
 10 11  1  0
 11 12  2  0
 12 13  1  0
 12 14  1  0
 14 15  2  0
  2 16  1  0
 16 17  1  0
 17 18  1  0
 18 19  2  0
 19 20  1  0
 20 21  1  0
 21 22  1  0
 22 23  1  0
 15  6  1  0
 20 16  2  0
 15  9  1  0
 23 19  1  0
  3 24  1  0
  4 25  1  0
  4 26  1  0
  5 27  1  0
  5 28  1  0
  7 29  1  0
  8 30  1  0
 10 31  1  0
 11 32  1  0
 14 33  1  0
 17 34  1  0
 21 35  1  0
 21 36  1  0
 22 37  1  0
 22 38  1  0
 23 39  1  0
 23 40  1  0
M  END
>  <Energy>  (1064) 
633.74450848203799

>  <compound_id>  (1064) 
46193

>  <target_id>  (1064) 
1

>  <reference_id>  (1064) 
123

>  <inspiration_ids>  (1064) 
[40, 123]

>  <energy_score>  (1064) 
597.2743021512404

>  <distance_score>  (1064) 
7.0426552618751685

>  <path>  (1064) 
/opt/xchem-fragalysis-2/maxwin/BulkDock/SCRATCH/511023/C46193-P123/C46193-P123.minimised.mol

>  <scratch_subdir>  (1064) 
/opt/xchem-fragalysis-2/maxwin/BulkDock/SCRATCH/511023/C46193-P123

>  <fragmenstein_runtime>  (1064) 
18.09686827659607

>  <fragmenstein_outcome>  (1064) 
too moved

>  <fragmenstein_mode>  (1064) 
expansion

>  <fragmenstein_error>  (1064) 


$$$$
C46194-P40
     RDKit          3D

 44 47  0  0  0  0  0  0  0  0999 V2000
    0.3316   -6.5966   29.8102 C   0  0  0  0  0  0  0  0  0  0  0  0
    0.3924   -7.7918   29.0151 O   0  0  0  0  0  0  0  0  0  0  0  0
   -0.3623   -8.8006   29.4768 C   0  0  0  0  0  0  0  0  0  0  0  0
   -0.8122   -8.9956   30.7027 C   0  0  0  0  0  0  0  0  0  0  0  0
   -1.6571  -10.1625   30.7580 C   0  0  0  0  0  0  0  0  0  0  0  0
   -2.5021  -11.4383   29.6871 C   0  0  0  0  0  0  0  0  0  0  0  0
   -1.9428  -11.1291   28.4937 C   0  0  0  0  0  0  0  0  0  0  0  0
   -2.6855  -11.8271   27.4604 C   0  0  0  0  0  0  0  0  0  0  0  0
   -3.9587  -11.9662   27.9435 C   0  0  0  0  0  0  0  0  0  0  0  0
   -4.0360  -12.3101   29.2914 N   0  0  0  0  0  0  0  0  0  0  0  0
   -5.4286  -13.5898   29.9895 C   0  0  0  0  0  0  0  0  0  0  0  0
   -5.3807  -15.4596   30.4532 C   0  0  0  0  0  0  0  0  0  0  0  0
   -5.9250  -16.2614   31.7950 N   0  0  0  0  0  0  0  0  0  0  0  0
   -6.8932  -17.8908   32.0069 C   0  0  0  0  0  0  0  0  0  0  0  0
   -7.2621  -18.4162   31.0160 O   0  0  0  0  0  0  0  0  0  0  0  0
   -7.2865  -18.9762   33.4418 C   0  0  0  0  0  0  0  0  0  0  0  0
   -8.5151  -18.6732   34.0872 N   0  0  0  0  0  0  0  0  0  0  0  0
   -9.1671  -19.6940   34.5959 N   0  0  0  0  0  0  0  0  0  0  0  0
   -8.6464  -20.7030   33.8990 C   0  0  0  0  0  0  0  0  0  0  0  0
   -7.1696  -20.6441   33.6929 C   0  0  0  0  0  0  0  0  0  0  0  0
   -7.4823  -22.4176   34.1906 C   0  0  0  0  0  0  0  0  0  0  0  0
   -8.8048  -23.4148   33.0928 C   0  0  0  0  0  0  0  0  0  0  0  0
   -9.4502  -21.7745   32.4161 C   0  0  0  0  0  0  0  0  0  0  0  0
   -0.6757   -9.9585   28.7023 C   0  0  0  0  0  0  0  0  0  0  0  0
    0.9152   -5.8271   29.2966 H   0  0  0  0  0  0  0  0  0  0  0  0
    0.7634   -6.7399   30.8036 H   0  0  0  0  0  0  0  0  0  0  0  0
   -0.6977   -6.2425   29.9016 H   0  0  0  0  0  0  0  0  0  0  0  0
   -0.6783   -8.3471   31.5563 H   0  0  0  0  0  0  0  0  0  0  0  0
   -2.2371   -9.8271   31.6752 H   0  0  0  0  0  0  0  0  0  0  0  0
   -2.5201  -11.8857   26.3991 H   0  0  0  0  0  0  0  0  0  0  0  0
   -4.8758  -12.0094   27.3749 H   0  0  0  0  0  0  0  0  0  0  0  0
   -6.0182  -13.1984   30.8653 H   0  0  0  0  0  0  0  0  0  0  0  0
   -6.2598  -13.5627   29.2789 H   0  0  0  0  0  0  0  0  0  0  0  0
   -5.6077  -16.0903   29.6052 H   0  0  0  0  0  0  0  0  0  0  0  0
   -4.3139  -15.5334   30.6891 H   0  0  0  0  0  0  0  0  0  0  0  0
   -5.6407  -16.0029   32.5788 H   0  0  0  0  0  0  0  0  0  0  0  0
   -8.9781  -17.7721   34.1111 H   0  0  0  0  0  0  0  0  0  0  0  0
   -6.5103  -22.9180   34.0963 H   0  0  0  0  0  0  0  0  0  0  0  0
   -7.8228  -22.3328   35.2151 H   0  0  0  0  0  0  0  0  0  0  0  0
   -8.4750  -24.3707   32.6943 H   0  0  0  0  0  0  0  0  0  0  0  0
   -9.7528  -23.8940   33.2309 H   0  0  0  0  0  0  0  0  0  0  0  0
  -10.1150  -21.2477   31.6885 H   0  0  0  0  0  0  0  0  0  0  0  0
  -10.4222  -22.3846   32.4210 H   0  0  0  0  0  0  0  0  0  0  0  0
   -0.0249  -10.5515   29.3742 H   0  0  0  0  0  0  0  0  0  0  0  0
  1  2  1  0
  2  3  1  0
  3  4  2  0
  4  5  1  0
  5  6  2  0
  6  7  1  0
  7  8  1  0
  8  9  2  0
  9 10  1  0
 10 11  1  0
 11 12  1  0
 12 13  1  0
 13 14  1  0
 14 15  2  0
 14 16  1  0
 16 17  1  0
 17 18  1  0
 18 19  2  0
 19 20  1  0
 20 21  1  0
 21 22  1  0
 22 23  1  0
  7 24  2  0
 24  3  1  0
 10  6  1  0
 20 16  2  0
 23 19  1  0
  1 25  1  0
  1 26  1  0
  1 27  1  0
  4 28  1  0
  5 29  1  0
  8 30  1  0
  9 31  1  0
 11 32  1  0
 11 33  1  0
 12 34  1  0
 12 35  1  0
 13 36  1  0
 17 37  1  0
 21 38  1  0
 21 39  1  0
 22 40  1  0
 22 41  1  0
 23 42  1  0
 23 43  1  0
 24 44  1  0
M  END
>  <Energy>  (1065) 
1075.5069201809754

>  <compound_id>  (1065) 
46194

>  <target_id>  (1065) 
1

>  <reference_id>  (1065) 
40

>  <inspiration_ids>  (1065) 
[40, 123]

>  <energy_score>  (1065) 
1039.9153921448594

>  <distance_score>  (1065) 
5.915676751545732

>  <path>  (1065) 
/opt/xchem-fragalysis-2/maxwin/BulkDock/SCRATCH/511023/C46194-P40/C46194-P40.minimised.mol

>  <scratch_subdir>  (1065) 
/opt/xchem-fragalysis-2/maxwin/BulkDock/SCRATCH/511023/C46194-P40

>  <fragmenstein_runtime>  (1065) 
28.22781991958618

>  <fragmenstein_outcome>  (1065) 
too moved

>  <fragmenstein_mode>  (1065) 
expansion

>  <fragmenstein_error>  (1065) 


$$$$
C46194-P123
     RDKit          3D

 44 47  0  0  0  0  0  0  0  0999 V2000
   -0.2947   -5.0458   32.0041 C   0  0  0  0  0  0  0  0  0  0  0  0
   -0.3591   -5.2559   30.5945 O   0  0  0  0  0  0  0  0  0  0  0  0
   -0.4573   -6.5535   30.1728 C   0  0  0  0  0  0  0  0  0  0  0  0
   -0.4968   -6.7550   28.7872 C   0  0  0  0  0  0  0  0  0  0  0  0
   -0.6064   -8.0545   28.2358 C   0  0  0  0  0  0  0  0  0  0  0  0
   -0.9939   -9.1015   29.1708 C   0  0  0  0  0  0  0  0  0  0  0  0
   -0.4660   -8.9363   30.3834 C   0  0  0  0  0  0  0  0  0  0  0  0
    0.5031   -9.9577   29.9561 C   0  0  0  0  0  0  0  0  0  0  0  0
   -0.0987  -10.7583   29.0807 C   0  0  0  0  0  0  0  0  0  0  0  0
   -1.5022  -10.6845   29.3297 N   0  0  0  0  0  0  0  0  0  0  0  0
   -2.9258  -11.8288   30.0316 C   0  0  0  0  0  0  0  0  0  0  0  0
   -4.5522  -13.1863   30.0089 C   0  0  0  0  0  0  0  0  0  0  0  0
   -6.0328  -14.2838   30.8975 N   0  0  0  0  0  0  0  0  0  0  0  0
   -5.9392  -15.8431   32.0971 C   0  0  0  0  0  0  0  0  0  0  0  0
   -4.9142  -16.4595   32.3906 O   0  0  0  0  0  0  0  0  0  0  0  0
   -7.2656  -16.4467   33.0679 C   0  0  0  0  0  0  0  0  0  0  0  0
   -8.6119  -16.3574   33.3962 N   0  0  0  0  0  0  0  0  0  0  0  0
   -8.9875  -17.5072   34.1543 N   0  0  0  0  0  0  0  0  0  0  0  0
   -7.7681  -18.0069   34.4697 C   0  0  0  0  0  0  0  0  0  0  0  0
   -7.0617  -16.8245   34.4111 C   0  0  0  0  0  0  0  0  0  0  0  0
   -7.2723  -16.2655   35.8681 C   0  0  0  0  0  0  0  0  0  0  0  0
   -7.4344  -17.5462   36.7426 C   0  0  0  0  0  0  0  0  0  0  0  0
   -7.3817  -18.6884   35.7298 C   0  0  0  0  0  0  0  0  0  0  0  0
   -0.4207   -7.6678   31.0051 C   0  0  0  0  0  0  0  0  0  0  0  0
   -0.3027   -3.9655   32.1784 H   0  0  0  0  0  0  0  0  0  0  0  0
    0.6390   -5.4420   32.4152 H   0  0  0  0  0  0  0  0  0  0  0  0
   -1.1671   -5.4699   32.5120 H   0  0  0  0  0  0  0  0  0  0  0  0
   -0.3870   -5.9001   28.1241 H   0  0  0  0  0  0  0  0  0  0  0  0
   -0.5062   -8.2038   27.1678 H   0  0  0  0  0  0  0  0  0  0  0  0
    1.5489  -10.1069   30.1730 H   0  0  0  0  0  0  0  0  0  0  0  0
    0.4528  -11.1909   28.2680 H   0  0  0  0  0  0  0  0  0  0  0  0
   -3.1553  -11.0587   30.7556 H   0  0  0  0  0  0  0  0  0  0  0  0
   -3.2030  -11.7327   28.9888 H   0  0  0  0  0  0  0  0  0  0  0  0
   -5.1830  -12.5006   29.4703 H   0  0  0  0  0  0  0  0  0  0  0  0
   -3.7808  -13.9204   29.8422 H   0  0  0  0  0  0  0  0  0  0  0  0
   -6.9683  -13.9157   30.8878 H   0  0  0  0  0  0  0  0  0  0  0  0
   -9.3171  -15.6645   33.1593 H   0  0  0  0  0  0  0  0  0  0  0  0
   -6.4839  -15.6328   36.2741 H   0  0  0  0  0  0  0  0  0  0  0  0
   -8.2036  -15.7056   35.9612 H   0  0  0  0  0  0  0  0  0  0  0  0
   -8.3895  -17.5042   37.2754 H   0  0  0  0  0  0  0  0  0  0  0  0
   -6.6374  -17.6297   37.4884 H   0  0  0  0  0  0  0  0  0  0  0  0
   -7.8246  -19.6094   36.0155 H   0  0  0  0  0  0  0  0  0  0  0  0
   -6.3455  -19.0153   35.6850 H   0  0  0  0  0  0  0  0  0  0  0  0
   -0.2009   -7.5965   32.0601 H   0  0  0  0  0  0  0  0  0  0  0  0
  1  2  1  0
  2  3  1  0
  3  4  2  0
  4  5  1  0
  5  6  2  0
  6  7  1  0
  7  8  1  0
  8  9  2  0
  9 10  1  0
 10 11  1  0
 11 12  1  0
 12 13  1  0
 13 14  1  0
 14 15  2  0
 14 16  1  0
 16 17  1  0
 17 18  1  0
 18 19  2  0
 19 20  1  0
 20 21  1  0
 21 22  1  0
 22 23  1  0
  7 24  2  0
 24  3  1  0
 10  6  1  0
 20 16  2  0
 23 19  1  0
  1 25  1  0
  1 26  1  0
  1 27  1  0
  4 28  1  0
  5 29  1  0
  8 30  1  0
  9 31  1  0
 11 32  1  0
 11 33  1  0
 12 34  1  0
 12 35  1  0
 13 36  1  0
 17 37  1  0
 21 38  1  0
 21 39  1  0
 22 40  1  0
 22 41  1  0
 23 42  1  0
 23 43  1  0
 24 44  1  0
M  END
>  <Energy>  (1066) 
835.90215722272092

>  <compound_id>  (1066) 
46194

>  <target_id>  (1066) 
1

>  <reference_id>  (1066) 
123

>  <inspiration_ids>  (1066) 
[40, 123]

>  <energy_score>  (1066) 
800.3106291866288

>  <distance_score>  (1066) 
6.8318521920073865

>  <path>  (1066) 
/opt/xchem-fragalysis-2/maxwin/BulkDock/SCRATCH/511023/C46194-P123/C46194-P123.minimised.mol

>  <scratch_subdir>  (1066) 
/opt/xchem-fragalysis-2/maxwin/BulkDock/SCRATCH/511023/C46194-P123

>  <fragmenstein_runtime>  (1066) 
29.14877724647522

>  <fragmenstein_outcome>  (1066) 
too moved

>  <fragmenstein_mode>  (1066) 
expansion

>  <fragmenstein_error>  (1066) 


$$$$
C46195-P40
     RDKit          3D

 50 53  0  0  0  0  0  0  0  0999 V2000
    0.5081   -5.2941   32.2915 C   0  0  0  0  0  0  0  0  0  0  0  0
   -0.1667   -6.3297   32.9890 O   0  0  0  0  0  0  0  0  0  0  0  0
   -0.5451   -7.4086   32.2647 C   0  0  0  0  0  0  0  0  0  0  0  0
   -1.5489   -8.1589   32.7687 C   0  0  0  0  0  0  0  0  0  0  0  0
   -2.1098   -9.2099   31.9994 C   0  0  0  0  0  0  0  0  0  0  0  0
   -1.4939   -9.9971   30.9206 C   0  0  0  0  0  0  0  0  0  0  0  0
   -0.5957   -9.0003   30.3971 C   0  0  0  0  0  0  0  0  0  0  0  0
   -0.3435   -9.3871   29.1449 C   0  0  0  0  0  0  0  0  0  0  0  0
   -1.1883  -10.4151   28.8139 C   0  0  0  0  0  0  0  0  0  0  0  0
   -2.0552  -11.2781   29.7744 N   0  0  0  0  0  0  0  0  0  0  0  0
   -3.2764  -12.8313   29.4332 C   0  0  0  0  0  0  0  0  0  0  0  0
   -4.1984  -14.7009   30.4171 C   0  0  0  0  0  0  0  0  0  0  0  0
   -5.4956  -15.6326   31.7327 N   0  0  0  0  0  0  0  0  0  0  0  0
   -6.5327  -17.3549   31.6803 C   0  0  0  0  0  0  0  0  0  0  0  0
   -6.4972  -17.9877   30.6274 O   0  0  0  0  0  0  0  0  0  0  0  0
   -7.5279  -18.3826   33.0244 C   0  0  0  0  0  0  0  0  0  0  0  0
   -6.8323  -19.5298   33.4937 N   0  0  0  0  0  0  0  0  0  0  0  0
   -7.6633  -20.4479   34.1655 N   0  0  0  0  0  0  0  0  0  0  0  0
   -9.0509  -20.5163   33.8134 C   0  0  0  0  0  0  0  0  0  0  0  0
   -9.2594  -19.0859   33.5056 C   0  0  0  0  0  0  0  0  0  0  0  0
  -10.8142  -19.5139   32.4799 C   0  0  0  0  0  0  0  0  0  0  0  0
  -11.9229  -20.6684   31.1881 C   0  0  0  0  0  0  0  0  0  0  0  0
  -11.4325  -21.2473   29.9721 C   0  0  0  0  0  0  0  0  0  0  0  0
  -11.0958  -22.1549   30.9567 C   0  0  0  0  0  0  0  0  0  0  0  0
   -9.7467  -21.7718   32.3159 C   0  0  0  0  0  0  0  0  0  0  0  0
   -0.1414   -7.7817   31.0165 C   0  0  0  0  0  0  0  0  0  0  0  0
    0.6340   -4.4518   32.9783 H   0  0  0  0  0  0  0  0  0  0  0  0
    1.5042   -5.6205   31.9761 H   0  0  0  0  0  0  0  0  0  0  0  0
   -0.0776   -4.9438   31.4347 H   0  0  0  0  0  0  0  0  0  0  0  0
   -2.0358   -7.8419   33.6850 H   0  0  0  0  0  0  0  0  0  0  0  0
   -3.1841   -9.0846   32.0252 H   0  0  0  0  0  0  0  0  0  0  0  0
    0.2862   -8.7230   28.5801 H   0  0  0  0  0  0  0  0  0  0  0  0
   -1.4573  -10.8326   27.8623 H   0  0  0  0  0  0  0  0  0  0  0  0
   -4.0049  -12.1287   29.0069 H   0  0  0  0  0  0  0  0  0  0  0  0
   -2.4209  -13.2194   28.8781 H   0  0  0  0  0  0  0  0  0  0  0  0
   -4.2050  -15.6746   29.9219 H   0  0  0  0  0  0  0  0  0  0  0  0
   -3.3252  -14.9526   31.0784 H   0  0  0  0  0  0  0  0  0  0  0  0
   -5.6662  -15.2079   32.5409 H   0  0  0  0  0  0  0  0  0  0  0  0
   -7.1739  -21.2452   34.5452 H   0  0  0  0  0  0  0  0  0  0  0  0
  -10.3704  -19.7368   31.6340 H   0  0  0  0  0  0  0  0  0  0  0  0
  -11.6098  -18.9544   33.0551 H   0  0  0  0  0  0  0  0  0  0  0  0
  -12.6660  -20.3510   30.4013 H   0  0  0  0  0  0  0  0  0  0  0  0
  -12.7157  -21.0320   31.8072 H   0  0  0  0  0  0  0  0  0  0  0  0
  -10.6463  -20.7866   29.4384 H   0  0  0  0  0  0  0  0  0  0  0  0
  -12.1559  -21.6461   29.2461 H   0  0  0  0  0  0  0  0  0  0  0  0
  -11.7017  -22.8786   31.4049 H   0  0  0  0  0  0  0  0  0  0  0  0
  -10.7854  -22.8366   30.1164 H   0  0  0  0  0  0  0  0  0  0  0  0
   -9.2286  -22.7902   32.5074 H   0  0  0  0  0  0  0  0  0  0  0  0
  -10.4923  -22.5646   32.6199 H   0  0  0  0  0  0  0  0  0  0  0  0
    0.5370   -7.1531   30.4517 H   0  0  0  0  0  0  0  0  0  0  0  0
  1  2  1  0
  2  3  1  0
  3  4  2  0
  4  5  1  0
  5  6  2  0
  6  7  1  0
  7  8  1  0
  8  9  2  0
  9 10  1  0
 10 11  1  0
 11 12  1  0
 12 13  1  0
 13 14  1  0
 14 15  2  0
 14 16  1  0
 16 17  2  0
 17 18  1  0
 18 19  1  0
 19 20  2  0
 20 21  1  0
 21 22  1  0
 22 23  1  0
 23 24  1  0
 24 25  1  0
  7 26  2  0
 26  3  1  0
 10  6  1  0
 20 16  1  0
 25 19  1  0
  1 27  1  0
  1 28  1  0
  1 29  1  0
  4 30  1  0
  5 31  1  0
  8 32  1  0
  9 33  1  0
 11 34  1  0
 11 35  1  0
 12 36  1  0
 12 37  1  0
 13 38  1  0
 18 39  1  0
 21 40  1  0
 21 41  1  0
 22 42  1  0
 22 43  1  0
 23 44  1  0
 23 45  1  0
 24 46  1  0
 24 47  1  0
 25 48  1  0
 25 49  1  0
 26 50  1  0
M  END
>  <Energy>  (1067) 
1612.0332025670359

>  <compound_id>  (1067) 
46195

>  <target_id>  (1067) 
1

>  <reference_id>  (1067) 
40

>  <inspiration_ids>  (1067) 
[40, 123]

>  <energy_score>  (1067) 
1509.003579322192

>  <distance_score>  (1067) 
4.900064703917208

>  <path>  (1067) 
/opt/xchem-fragalysis-2/maxwin/BulkDock/SCRATCH/511023/C46195-P40/C46195-P40.minimised.mol

>  <scratch_subdir>  (1067) 
/opt/xchem-fragalysis-2/maxwin/BulkDock/SCRATCH/511023/C46195-P40

>  <fragmenstein_runtime>  (1067) 
22.568166255950928

>  <fragmenstein_outcome>  (1067) 
too moved

>  <fragmenstein_mode>  (1067) 
expansion

>  <fragmenstein_error>  (1067) 


$$$$
C46195-P123
     RDKit          3D

 50 53  0  0  0  0  0  0  0  0999 V2000
   -0.5902   -5.9570   28.4743 C   0  0  0  0  0  0  0  0  0  0  0  0
   -0.2731   -6.2853   29.8188 O   0  0  0  0  0  0  0  0  0  0  0  0
   -0.5804   -7.5729   30.1535 C   0  0  0  0  0  0  0  0  0  0  0  0
   -0.4515   -8.6757   29.3083 C   0  0  0  0  0  0  0  0  0  0  0  0
   -0.8074   -9.9959   29.6876 C   0  0  0  0  0  0  0  0  0  0  0  0
   -1.7033  -10.1552   30.7914 C   0  0  0  0  0  0  0  0  0  0  0  0
   -1.7087   -8.9855   31.7014 C   0  0  0  0  0  0  0  0  0  0  0  0
   -2.6448   -9.1735   32.6784 C   0  0  0  0  0  0  0  0  0  0  0  0
   -3.5860   -9.8840   31.9978 C   0  0  0  0  0  0  0  0  0  0  0  0
   -3.0273  -10.8705   30.9725 N   0  0  0  0  0  0  0  0  0  0  0  0
   -3.9636  -12.2386   30.1618 C   0  0  0  0  0  0  0  0  0  0  0  0
   -5.4949  -13.5027   30.3663 C   0  0  0  0  0  0  0  0  0  0  0  0
   -6.6390  -14.7090   31.2897 N   0  0  0  0  0  0  0  0  0  0  0  0
   -6.2486  -16.2164   32.4099 C   0  0  0  0  0  0  0  0  0  0  0  0
   -5.1412  -16.6622   32.6073 O   0  0  0  0  0  0  0  0  0  0  0  0
   -7.5697  -17.2389   33.3688 C   0  0  0  0  0  0  0  0  0  0  0  0
   -7.2353  -17.3835   34.6824 N   0  0  0  0  0  0  0  0  0  0  0  0
   -7.3191  -18.7276   35.0091 N   0  0  0  0  0  0  0  0  0  0  0  0
   -7.8438  -19.6273   34.0869 C   0  0  0  0  0  0  0  0  0  0  0  0
   -8.6685  -18.7473   33.4725 C   0  0  0  0  0  0  0  0  0  0  0  0
  -10.1581  -19.7092   32.8292 C   0  0  0  0  0  0  0  0  0  0  0  0
  -10.5206  -21.1490   31.9402 C   0  0  0  0  0  0  0  0  0  0  0  0
  -10.1148  -22.7557   32.4307 C   0  0  0  0  0  0  0  0  0  0  0  0
   -8.4868  -22.7516   33.2638 C   0  0  0  0  0  0  0  0  0  0  0  0
   -7.6839  -21.1783   33.4682 C   0  0  0  0  0  0  0  0  0  0  0  0
   -1.0123   -7.7820   31.4391 C   0  0  0  0  0  0  0  0  0  0  0  0
   -0.5541   -4.8696   28.3675 H   0  0  0  0  0  0  0  0  0  0  0  0
    0.1084   -6.3938   27.7636 H   0  0  0  0  0  0  0  0  0  0  0  0
   -1.5840   -6.3098   28.1938 H   0  0  0  0  0  0  0  0  0  0  0  0
   -0.0277   -8.5503   28.3145 H   0  0  0  0  0  0  0  0  0  0  0  0
   -0.6929  -10.6998   28.9040 H   0  0  0  0  0  0  0  0  0  0  0  0
   -2.8388   -8.5497   33.5388 H   0  0  0  0  0  0  0  0  0  0  0  0
   -4.6360   -9.9856   32.2539 H   0  0  0  0  0  0  0  0  0  0  0  0
   -4.0668  -11.9017   29.1550 H   0  0  0  0  0  0  0  0  0  0  0  0
   -3.0792  -12.8008   29.8817 H   0  0  0  0  0  0  0  0  0  0  0  0
   -6.1356  -13.4518   29.5068 H   0  0  0  0  0  0  0  0  0  0  0  0
   -5.8453  -12.7200   31.0348 H   0  0  0  0  0  0  0  0  0  0  0  0
   -7.6302  -14.4787   31.3562 H   0  0  0  0  0  0  0  0  0  0  0  0
   -6.9177  -18.9383   35.9163 H   0  0  0  0  0  0  0  0  0  0  0  0
  -11.0096  -19.1141   33.1061 H   0  0  0  0  0  0  0  0  0  0  0  0
  -10.6772  -20.1906   33.6238 H   0  0  0  0  0  0  0  0  0  0  0  0
  -11.6206  -21.2013   31.9969 H   0  0  0  0  0  0  0  0  0  0  0  0
  -10.3830  -21.0281   30.8690 H   0  0  0  0  0  0  0  0  0  0  0  0
  -10.1536  -23.4966   31.6263 H   0  0  0  0  0  0  0  0  0  0  0  0
  -10.8902  -23.1391   33.1162 H   0  0  0  0  0  0  0  0  0  0  0  0
   -8.4270  -23.3662   34.1323 H   0  0  0  0  0  0  0  0  0  0  0  0
   -7.9157  -23.4143   32.6256 H   0  0  0  0  0  0  0  0  0  0  0  0
   -6.7228  -21.1158   32.9505 H   0  0  0  0  0  0  0  0  0  0  0  0
   -8.3907  -20.9369   32.7306 H   0  0  0  0  0  0  0  0  0  0  0  0
   -1.0585   -6.9552   32.1429 H   0  0  0  0  0  0  0  0  0  0  0  0
  1  2  1  0
  2  3  1  0
  3  4  2  0
  4  5  1  0
  5  6  2  0
  6  7  1  0
  7  8  1  0
  8  9  2  0
  9 10  1  0
 10 11  1  0
 11 12  1  0
 12 13  1  0
 13 14  1  0
 14 15  2  0
 14 16  1  0
 16 17  2  0
 17 18  1  0
 18 19  1  0
 19 20  2  0
 20 21  1  0
 21 22  1  0
 22 23  1  0
 23 24  1  0
 24 25  1  0
  7 26  2  0
 26  3  1  0
 10  6  1  0
 20 16  1  0
 25 19  1  0
  1 27  1  0
  1 28  1  0
  1 29  1  0
  4 30  1  0
  5 31  1  0
  8 32  1  0
  9 33  1  0
 11 34  1  0
 11 35  1  0
 12 36  1  0
 12 37  1  0
 13 38  1  0
 18 39  1  0
 21 40  1  0
 21 41  1  0
 22 42  1  0
 22 43  1  0
 23 44  1  0
 23 45  1  0
 24 46  1  0
 24 47  1  0
 25 48  1  0
 25 49  1  0
 26 50  1  0
M  END
>  <Energy>  (1068) 
889.86051614847622

>  <compound_id>  (1068) 
46195

>  <target_id>  (1068) 
1

>  <reference_id>  (1068) 
123

>  <inspiration_ids>  (1068) 
[40, 123]

>  <energy_score>  (1068) 
786.8308929036527

>  <distance_score>  (1068) 
6.011732524582317

>  <path>  (1068) 
/opt/xchem-fragalysis-2/maxwin/BulkDock/SCRATCH/511023/C46195-P123/C46195-P123.minimised.mol

>  <scratch_subdir>  (1068) 
/opt/xchem-fragalysis-2/maxwin/BulkDock/SCRATCH/511023/C46195-P123

>  <fragmenstein_runtime>  (1068) 
19.548696041107178

>  <fragmenstein_outcome>  (1068) 
too moved

>  <fragmenstein_mode>  (1068) 
expansion

>  <fragmenstein_error>  (1068) 


$$$$
C46194-P40
     RDKit          3D

 44 47  0  0  0  0  0  0  0  0999 V2000
    0.3316   -6.5966   29.8102 C   0  0  0  0  0  0  0  0  0  0  0  0
    0.3924   -7.7918   29.0151 O   0  0  0  0  0  0  0  0  0  0  0  0
   -0.3623   -8.8006   29.4768 C   0  0  0  0  0  0  0  0  0  0  0  0
   -0.8122   -8.9956   30.7027 C   0  0  0  0  0  0  0  0  0  0  0  0
   -1.6571  -10.1625   30.7580 C   0  0  0  0  0  0  0  0  0  0  0  0
   -2.5021  -11.4383   29.6871 C   0  0  0  0  0  0  0  0  0  0  0  0
   -1.9428  -11.1291   28.4937 C   0  0  0  0  0  0  0  0  0  0  0  0
   -2.6855  -11.8271   27.4604 C   0  0  0  0  0  0  0  0  0  0  0  0
   -3.9587  -11.9662   27.9435 C   0  0  0  0  0  0  0  0  0  0  0  0
   -4.0360  -12.3101   29.2914 N   0  0  0  0  0  0  0  0  0  0  0  0
   -5.4286  -13.5898   29.9895 C   0  0  0  0  0  0  0  0  0  0  0  0
   -5.3807  -15.4596   30.4532 C   0  0  0  0  0  0  0  0  0  0  0  0
   -5.9250  -16.2614   31.7950 N   0  0  0  0  0  0  0  0  0  0  0  0
   -6.8932  -17.8908   32.0069 C   0  0  0  0  0  0  0  0  0  0  0  0
   -7.2621  -18.4162   31.0160 O   0  0  0  0  0  0  0  0  0  0  0  0
   -7.2865  -18.9762   33.4418 C   0  0  0  0  0  0  0  0  0  0  0  0
   -8.5151  -18.6732   34.0872 N   0  0  0  0  0  0  0  0  0  0  0  0
   -9.1671  -19.6940   34.5959 N   0  0  0  0  0  0  0  0  0  0  0  0
   -8.6464  -20.7030   33.8990 C   0  0  0  0  0  0  0  0  0  0  0  0
   -7.1696  -20.6441   33.6929 C   0  0  0  0  0  0  0  0  0  0  0  0
   -7.4823  -22.4176   34.1906 C   0  0  0  0  0  0  0  0  0  0  0  0
   -8.8048  -23.4148   33.0928 C   0  0  0  0  0  0  0  0  0  0  0  0
   -9.4502  -21.7745   32.4161 C   0  0  0  0  0  0  0  0  0  0  0  0
   -0.6757   -9.9585   28.7023 C   0  0  0  0  0  0  0  0  0  0  0  0
    0.9152   -5.8271   29.2966 H   0  0  0  0  0  0  0  0  0  0  0  0
    0.7634   -6.7399   30.8036 H   0  0  0  0  0  0  0  0  0  0  0  0
   -0.6977   -6.2425   29.9016 H   0  0  0  0  0  0  0  0  0  0  0  0
   -0.6783   -8.3471   31.5563 H   0  0  0  0  0  0  0  0  0  0  0  0
   -2.2371   -9.8271   31.6752 H   0  0  0  0  0  0  0  0  0  0  0  0
   -2.5201  -11.8857   26.3991 H   0  0  0  0  0  0  0  0  0  0  0  0
   -4.8758  -12.0094   27.3749 H   0  0  0  0  0  0  0  0  0  0  0  0
   -6.0182  -13.1984   30.8653 H   0  0  0  0  0  0  0  0  0  0  0  0
   -6.2598  -13.5627   29.2789 H   0  0  0  0  0  0  0  0  0  0  0  0
   -5.6077  -16.0903   29.6052 H   0  0  0  0  0  0  0  0  0  0  0  0
   -4.3139  -15.5334   30.6891 H   0  0  0  0  0  0  0  0  0  0  0  0
   -5.6407  -16.0029   32.5788 H   0  0  0  0  0  0  0  0  0  0  0  0
   -8.9781  -17.7721   34.1111 H   0  0  0  0  0  0  0  0  0  0  0  0
   -6.5103  -22.9180   34.0963 H   0  0  0  0  0  0  0  0  0  0  0  0
   -7.8228  -22.3328   35.2151 H   0  0  0  0  0  0  0  0  0  0  0  0
   -8.4750  -24.3707   32.6943 H   0  0  0  0  0  0  0  0  0  0  0  0
   -9.7528  -23.8940   33.2309 H   0  0  0  0  0  0  0  0  0  0  0  0
  -10.1150  -21.2477   31.6885 H   0  0  0  0  0  0  0  0  0  0  0  0
  -10.4222  -22.3846   32.4210 H   0  0  0  0  0  0  0  0  0  0  0  0
   -0.0249  -10.5515   29.3742 H   0  0  0  0  0  0  0  0  0  0  0  0
  1  2  1  0
  2  3  1  0
  3  4  2  0
  4  5  1  0
  5  6  2  0
  6  7  1  0
  7  8  1  0
  8  9  2  0
  9 10  1  0
 10 11  1  0
 11 12  1  0
 12 13  1  0
 13 14  1  0
 14 15  2  0
 14 16  1  0
 16 17  1  0
 17 18  1  0
 18 19  2  0
 19 20  1  0
 20 21  1  0
 21 22  1  0
 22 23  1  0
  7 24  2  0
 24  3  1  0
 10  6  1  0
 20 16  2  0
 23 19  1  0
  1 25  1  0
  1 26  1  0
  1 27  1  0
  4 28  1  0
  5 29  1  0
  8 30  1  0
  9 31  1  0
 11 32  1  0
 11 33  1  0
 12 34  1  0
 12 35  1  0
 13 36  1  0
 17 37  1  0
 21 38  1  0
 21 39  1  0
 22 40  1  0
 22 41  1  0
 23 42  1  0
 23 43  1  0
 24 44  1  0
M  END
>  <Energy>  (1069) 
1075.5069201809754

>  <compound_id>  (1069) 
46194

>  <target_id>  (1069) 
1

>  <reference_id>  (1069) 
40

>  <inspiration_ids>  (1069) 
[40, 123]

>  <energy_score>  (1069) 
1039.9153921448594

>  <distance_score>  (1069) 
5.915676751545732

>  <path>  (1069) 
/opt/xchem-fragalysis-2/maxwin/BulkDock/SCRATCH/511023/C46194-P40/C46194-P40.minimised.mol

>  <scratch_subdir>  (1069) 
/opt/xchem-fragalysis-2/maxwin/BulkDock/SCRATCH/511023/C46194-P40

>  <fragmenstein_runtime>  (1069) 
27.39119529724121

>  <fragmenstein_outcome>  (1069) 
too moved

>  <fragmenstein_mode>  (1069) 
expansion

>  <fragmenstein_error>  (1069) 


$$$$
C46194-P123
     RDKit          3D

 44 47  0  0  0  0  0  0  0  0999 V2000
   -0.2947   -5.0458   32.0041 C   0  0  0  0  0  0  0  0  0  0  0  0
   -0.3591   -5.2559   30.5945 O   0  0  0  0  0  0  0  0  0  0  0  0
   -0.4573   -6.5535   30.1728 C   0  0  0  0  0  0  0  0  0  0  0  0
   -0.4968   -6.7550   28.7872 C   0  0  0  0  0  0  0  0  0  0  0  0
   -0.6064   -8.0545   28.2358 C   0  0  0  0  0  0  0  0  0  0  0  0
   -0.9939   -9.1015   29.1708 C   0  0  0  0  0  0  0  0  0  0  0  0
   -0.4660   -8.9363   30.3834 C   0  0  0  0  0  0  0  0  0  0  0  0
    0.5031   -9.9577   29.9561 C   0  0  0  0  0  0  0  0  0  0  0  0
   -0.0987  -10.7583   29.0807 C   0  0  0  0  0  0  0  0  0  0  0  0
   -1.5022  -10.6845   29.3297 N   0  0  0  0  0  0  0  0  0  0  0  0
   -2.9258  -11.8288   30.0316 C   0  0  0  0  0  0  0  0  0  0  0  0
   -4.5522  -13.1863   30.0089 C   0  0  0  0  0  0  0  0  0  0  0  0
   -6.0328  -14.2838   30.8975 N   0  0  0  0  0  0  0  0  0  0  0  0
   -5.9392  -15.8431   32.0971 C   0  0  0  0  0  0  0  0  0  0  0  0
   -4.9142  -16.4595   32.3906 O   0  0  0  0  0  0  0  0  0  0  0  0
   -7.2656  -16.4467   33.0679 C   0  0  0  0  0  0  0  0  0  0  0  0
   -8.6119  -16.3574   33.3962 N   0  0  0  0  0  0  0  0  0  0  0  0
   -8.9875  -17.5072   34.1543 N   0  0  0  0  0  0  0  0  0  0  0  0
   -7.7681  -18.0069   34.4697 C   0  0  0  0  0  0  0  0  0  0  0  0
   -7.0617  -16.8245   34.4111 C   0  0  0  0  0  0  0  0  0  0  0  0
   -7.2723  -16.2655   35.8681 C   0  0  0  0  0  0  0  0  0  0  0  0
   -7.4344  -17.5462   36.7426 C   0  0  0  0  0  0  0  0  0  0  0  0
   -7.3817  -18.6884   35.7298 C   0  0  0  0  0  0  0  0  0  0  0  0
   -0.4207   -7.6678   31.0051 C   0  0  0  0  0  0  0  0  0  0  0  0
   -0.3027   -3.9655   32.1784 H   0  0  0  0  0  0  0  0  0  0  0  0
    0.6390   -5.4420   32.4152 H   0  0  0  0  0  0  0  0  0  0  0  0
   -1.1671   -5.4699   32.5120 H   0  0  0  0  0  0  0  0  0  0  0  0
   -0.3870   -5.9001   28.1241 H   0  0  0  0  0  0  0  0  0  0  0  0
   -0.5062   -8.2038   27.1678 H   0  0  0  0  0  0  0  0  0  0  0  0
    1.5489  -10.1069   30.1730 H   0  0  0  0  0  0  0  0  0  0  0  0
    0.4528  -11.1909   28.2680 H   0  0  0  0  0  0  0  0  0  0  0  0
   -3.1553  -11.0587   30.7556 H   0  0  0  0  0  0  0  0  0  0  0  0
   -3.2030  -11.7327   28.9888 H   0  0  0  0  0  0  0  0  0  0  0  0
   -5.1830  -12.5006   29.4703 H   0  0  0  0  0  0  0  0  0  0  0  0
   -3.7808  -13.9204   29.8422 H   0  0  0  0  0  0  0  0  0  0  0  0
   -6.9683  -13.9157   30.8878 H   0  0  0  0  0  0  0  0  0  0  0  0
   -9.3171  -15.6645   33.1593 H   0  0  0  0  0  0  0  0  0  0  0  0
   -6.4839  -15.6328   36.2741 H   0  0  0  0  0  0  0  0  0  0  0  0
   -8.2036  -15.7056   35.9612 H   0  0  0  0  0  0  0  0  0  0  0  0
   -8.3895  -17.5042   37.2754 H   0  0  0  0  0  0  0  0  0  0  0  0
   -6.6374  -17.6297   37.4884 H   0  0  0  0  0  0  0  0  0  0  0  0
   -7.8246  -19.6094   36.0155 H   0  0  0  0  0  0  0  0  0  0  0  0
   -6.3455  -19.0153   35.6850 H   0  0  0  0  0  0  0  0  0  0  0  0
   -0.2009   -7.5965   32.0601 H   0  0  0  0  0  0  0  0  0  0  0  0
  1  2  1  0
  2  3  1  0
  3  4  2  0
  4  5  1  0
  5  6  2  0
  6  7  1  0
  7  8  1  0
  8  9  2  0
  9 10  1  0
 10 11  1  0
 11 12  1  0
 12 13  1  0
 13 14  1  0
 14 15  2  0
 14 16  1  0
 16 17  1  0
 17 18  1  0
 18 19  2  0
 19 20  1  0
 20 21  1  0
 21 22  1  0
 22 23  1  0
  7 24  2  0
 24  3  1  0
 10  6  1  0
 20 16  2  0
 23 19  1  0
  1 25  1  0
  1 26  1  0
  1 27  1  0
  4 28  1  0
  5 29  1  0
  8 30  1  0
  9 31  1  0
 11 32  1  0
 11 33  1  0
 12 34  1  0
 12 35  1  0
 13 36  1  0
 17 37  1  0
 21 38  1  0
 21 39  1  0
 22 40  1  0
 22 41  1  0
 23 42  1  0
 23 43  1  0
 24 44  1  0
M  END
>  <Energy>  (1070) 
835.90215722272092

>  <compound_id>  (1070) 
46194

>  <target_id>  (1070) 
1

>  <reference_id>  (1070) 
123

>  <inspiration_ids>  (1070) 
[40, 123]

>  <energy_score>  (1070) 
800.3106291866288

>  <distance_score>  (1070) 
6.8318521920073865

>  <path>  (1070) 
/opt/xchem-fragalysis-2/maxwin/BulkDock/SCRATCH/511023/C46194-P123/C46194-P123.minimised.mol

>  <scratch_subdir>  (1070) 
/opt/xchem-fragalysis-2/maxwin/BulkDock/SCRATCH/511023/C46194-P123

>  <fragmenstein_runtime>  (1070) 
36.656410217285156

>  <fragmenstein_outcome>  (1070) 
too moved

>  <fragmenstein_mode>  (1070) 
expansion

>  <fragmenstein_error>  (1070) 


$$$$
C46195-P40
     RDKit          3D

 50 53  0  0  0  0  0  0  0  0999 V2000
    0.5081   -5.2941   32.2915 C   0  0  0  0  0  0  0  0  0  0  0  0
   -0.1667   -6.3297   32.9890 O   0  0  0  0  0  0  0  0  0  0  0  0
   -0.5451   -7.4086   32.2647 C   0  0  0  0  0  0  0  0  0  0  0  0
   -1.5489   -8.1589   32.7687 C   0  0  0  0  0  0  0  0  0  0  0  0
   -2.1098   -9.2099   31.9994 C   0  0  0  0  0  0  0  0  0  0  0  0
   -1.4939   -9.9971   30.9206 C   0  0  0  0  0  0  0  0  0  0  0  0
   -0.5957   -9.0003   30.3971 C   0  0  0  0  0  0  0  0  0  0  0  0
   -0.3435   -9.3871   29.1449 C   0  0  0  0  0  0  0  0  0  0  0  0
   -1.1883  -10.4151   28.8139 C   0  0  0  0  0  0  0  0  0  0  0  0
   -2.0552  -11.2781   29.7744 N   0  0  0  0  0  0  0  0  0  0  0  0
   -3.2764  -12.8313   29.4332 C   0  0  0  0  0  0  0  0  0  0  0  0
   -4.1984  -14.7009   30.4171 C   0  0  0  0  0  0  0  0  0  0  0  0
   -5.4956  -15.6326   31.7327 N   0  0  0  0  0  0  0  0  0  0  0  0
   -6.5327  -17.3549   31.6803 C   0  0  0  0  0  0  0  0  0  0  0  0
   -6.4972  -17.9877   30.6274 O   0  0  0  0  0  0  0  0  0  0  0  0
   -7.5279  -18.3826   33.0244 C   0  0  0  0  0  0  0  0  0  0  0  0
   -6.8323  -19.5298   33.4937 N   0  0  0  0  0  0  0  0  0  0  0  0
   -7.6633  -20.4479   34.1655 N   0  0  0  0  0  0  0  0  0  0  0  0
   -9.0509  -20.5163   33.8134 C   0  0  0  0  0  0  0  0  0  0  0  0
   -9.2594  -19.0859   33.5056 C   0  0  0  0  0  0  0  0  0  0  0  0
  -10.8142  -19.5139   32.4799 C   0  0  0  0  0  0  0  0  0  0  0  0
  -11.9229  -20.6684   31.1881 C   0  0  0  0  0  0  0  0  0  0  0  0
  -11.4325  -21.2473   29.9721 C   0  0  0  0  0  0  0  0  0  0  0  0
  -11.0958  -22.1549   30.9567 C   0  0  0  0  0  0  0  0  0  0  0  0
   -9.7467  -21.7718   32.3159 C   0  0  0  0  0  0  0  0  0  0  0  0
   -0.1414   -7.7817   31.0165 C   0  0  0  0  0  0  0  0  0  0  0  0
    0.6340   -4.4518   32.9783 H   0  0  0  0  0  0  0  0  0  0  0  0
    1.5042   -5.6205   31.9761 H   0  0  0  0  0  0  0  0  0  0  0  0
   -0.0776   -4.9438   31.4347 H   0  0  0  0  0  0  0  0  0  0  0  0
   -2.0358   -7.8419   33.6850 H   0  0  0  0  0  0  0  0  0  0  0  0
   -3.1841   -9.0846   32.0252 H   0  0  0  0  0  0  0  0  0  0  0  0
    0.2862   -8.7230   28.5801 H   0  0  0  0  0  0  0  0  0  0  0  0
   -1.4573  -10.8326   27.8623 H   0  0  0  0  0  0  0  0  0  0  0  0
   -4.0049  -12.1287   29.0069 H   0  0  0  0  0  0  0  0  0  0  0  0
   -2.4209  -13.2194   28.8781 H   0  0  0  0  0  0  0  0  0  0  0  0
   -4.2050  -15.6746   29.9219 H   0  0  0  0  0  0  0  0  0  0  0  0
   -3.3252  -14.9526   31.0784 H   0  0  0  0  0  0  0  0  0  0  0  0
   -5.6662  -15.2079   32.5409 H   0  0  0  0  0  0  0  0  0  0  0  0
   -7.1739  -21.2452   34.5452 H   0  0  0  0  0  0  0  0  0  0  0  0
  -10.3704  -19.7368   31.6340 H   0  0  0  0  0  0  0  0  0  0  0  0
  -11.6098  -18.9544   33.0551 H   0  0  0  0  0  0  0  0  0  0  0  0
  -12.6660  -20.3510   30.4013 H   0  0  0  0  0  0  0  0  0  0  0  0
  -12.7157  -21.0320   31.8072 H   0  0  0  0  0  0  0  0  0  0  0  0
  -10.6463  -20.7866   29.4384 H   0  0  0  0  0  0  0  0  0  0  0  0
  -12.1559  -21.6461   29.2461 H   0  0  0  0  0  0  0  0  0  0  0  0
  -11.7017  -22.8786   31.4049 H   0  0  0  0  0  0  0  0  0  0  0  0
  -10.7854  -22.8366   30.1164 H   0  0  0  0  0  0  0  0  0  0  0  0
   -9.2286  -22.7902   32.5074 H   0  0  0  0  0  0  0  0  0  0  0  0
  -10.4923  -22.5646   32.6199 H   0  0  0  0  0  0  0  0  0  0  0  0
    0.5370   -7.1531   30.4517 H   0  0  0  0  0  0  0  0  0  0  0  0
  1  2  1  0
  2  3  1  0
  3  4  2  0
  4  5  1  0
  5  6  2  0
  6  7  1  0
  7  8  1  0
  8  9  2  0
  9 10  1  0
 10 11  1  0
 11 12  1  0
 12 13  1  0
 13 14  1  0
 14 15  2  0
 14 16  1  0
 16 17  2  0
 17 18  1  0
 18 19  1  0
 19 20  2  0
 20 21  1  0
 21 22  1  0
 22 23  1  0
 23 24  1  0
 24 25  1  0
  7 26  2  0
 26  3  1  0
 10  6  1  0
 20 16  1  0
 25 19  1  0
  1 27  1  0
  1 28  1  0
  1 29  1  0
  4 30  1  0
  5 31  1  0
  8 32  1  0
  9 33  1  0
 11 34  1  0
 11 35  1  0
 12 36  1  0
 12 37  1  0
 13 38  1  0
 18 39  1  0
 21 40  1  0
 21 41  1  0
 22 42  1  0
 22 43  1  0
 23 44  1  0
 23 45  1  0
 24 46  1  0
 24 47  1  0
 25 48  1  0
 25 49  1  0
 26 50  1  0
M  END
>  <Energy>  (1071) 
1612.0332025670359

>  <compound_id>  (1071) 
46195

>  <target_id>  (1071) 
1

>  <reference_id>  (1071) 
40

>  <inspiration_ids>  (1071) 
[40, 123]

>  <energy_score>  (1071) 
1509.003579322192

>  <distance_score>  (1071) 
4.900064703917208

>  <path>  (1071) 
/opt/xchem-fragalysis-2/maxwin/BulkDock/SCRATCH/511023/C46195-P40/C46195-P40.minimised.mol

>  <scratch_subdir>  (1071) 
/opt/xchem-fragalysis-2/maxwin/BulkDock/SCRATCH/511023/C46195-P40

>  <fragmenstein_runtime>  (1071) 
23.625247955322266

>  <fragmenstein_outcome>  (1071) 
too moved

>  <fragmenstein_mode>  (1071) 
expansion

>  <fragmenstein_error>  (1071) 


$$$$
C46195-P123
     RDKit          3D

 50 53  0  0  0  0  0  0  0  0999 V2000
   -0.5902   -5.9570   28.4743 C   0  0  0  0  0  0  0  0  0  0  0  0
   -0.2731   -6.2853   29.8188 O   0  0  0  0  0  0  0  0  0  0  0  0
   -0.5804   -7.5729   30.1535 C   0  0  0  0  0  0  0  0  0  0  0  0
   -0.4515   -8.6757   29.3083 C   0  0  0  0  0  0  0  0  0  0  0  0
   -0.8074   -9.9959   29.6876 C   0  0  0  0  0  0  0  0  0  0  0  0
   -1.7033  -10.1552   30.7914 C   0  0  0  0  0  0  0  0  0  0  0  0
   -1.7087   -8.9855   31.7014 C   0  0  0  0  0  0  0  0  0  0  0  0
   -2.6448   -9.1735   32.6784 C   0  0  0  0  0  0  0  0  0  0  0  0
   -3.5860   -9.8840   31.9978 C   0  0  0  0  0  0  0  0  0  0  0  0
   -3.0273  -10.8705   30.9725 N   0  0  0  0  0  0  0  0  0  0  0  0
   -3.9636  -12.2386   30.1618 C   0  0  0  0  0  0  0  0  0  0  0  0
   -5.4949  -13.5027   30.3663 C   0  0  0  0  0  0  0  0  0  0  0  0
   -6.6390  -14.7090   31.2897 N   0  0  0  0  0  0  0  0  0  0  0  0
   -6.2486  -16.2164   32.4099 C   0  0  0  0  0  0  0  0  0  0  0  0
   -5.1412  -16.6622   32.6073 O   0  0  0  0  0  0  0  0  0  0  0  0
   -7.5697  -17.2389   33.3688 C   0  0  0  0  0  0  0  0  0  0  0  0
   -7.2353  -17.3835   34.6824 N   0  0  0  0  0  0  0  0  0  0  0  0
   -7.3191  -18.7276   35.0091 N   0  0  0  0  0  0  0  0  0  0  0  0
   -7.8438  -19.6273   34.0869 C   0  0  0  0  0  0  0  0  0  0  0  0
   -8.6685  -18.7473   33.4725 C   0  0  0  0  0  0  0  0  0  0  0  0
  -10.1581  -19.7092   32.8292 C   0  0  0  0  0  0  0  0  0  0  0  0
  -10.5206  -21.1490   31.9402 C   0  0  0  0  0  0  0  0  0  0  0  0
  -10.1148  -22.7557   32.4307 C   0  0  0  0  0  0  0  0  0  0  0  0
   -8.4868  -22.7516   33.2638 C   0  0  0  0  0  0  0  0  0  0  0  0
   -7.6839  -21.1783   33.4682 C   0  0  0  0  0  0  0  0  0  0  0  0
   -1.0123   -7.7820   31.4391 C   0  0  0  0  0  0  0  0  0  0  0  0
   -0.5541   -4.8696   28.3675 H   0  0  0  0  0  0  0  0  0  0  0  0
    0.1084   -6.3938   27.7636 H   0  0  0  0  0  0  0  0  0  0  0  0
   -1.5840   -6.3098   28.1938 H   0  0  0  0  0  0  0  0  0  0  0  0
   -0.0277   -8.5503   28.3145 H   0  0  0  0  0  0  0  0  0  0  0  0
   -0.6929  -10.6998   28.9040 H   0  0  0  0  0  0  0  0  0  0  0  0
   -2.8388   -8.5497   33.5388 H   0  0  0  0  0  0  0  0  0  0  0  0
   -4.6360   -9.9856   32.2539 H   0  0  0  0  0  0  0  0  0  0  0  0
   -4.0668  -11.9017   29.1550 H   0  0  0  0  0  0  0  0  0  0  0  0
   -3.0792  -12.8008   29.8817 H   0  0  0  0  0  0  0  0  0  0  0  0
   -6.1356  -13.4518   29.5068 H   0  0  0  0  0  0  0  0  0  0  0  0
   -5.8453  -12.7200   31.0348 H   0  0  0  0  0  0  0  0  0  0  0  0
   -7.6302  -14.4787   31.3562 H   0  0  0  0  0  0  0  0  0  0  0  0
   -6.9177  -18.9383   35.9163 H   0  0  0  0  0  0  0  0  0  0  0  0
  -11.0096  -19.1141   33.1061 H   0  0  0  0  0  0  0  0  0  0  0  0
  -10.6772  -20.1906   33.6238 H   0  0  0  0  0  0  0  0  0  0  0  0
  -11.6206  -21.2013   31.9969 H   0  0  0  0  0  0  0  0  0  0  0  0
  -10.3830  -21.0281   30.8690 H   0  0  0  0  0  0  0  0  0  0  0  0
  -10.1536  -23.4966   31.6263 H   0  0  0  0  0  0  0  0  0  0  0  0
  -10.8902  -23.1391   33.1162 H   0  0  0  0  0  0  0  0  0  0  0  0
   -8.4270  -23.3662   34.1323 H   0  0  0  0  0  0  0  0  0  0  0  0
   -7.9157  -23.4143   32.6256 H   0  0  0  0  0  0  0  0  0  0  0  0
   -6.7228  -21.1158   32.9505 H   0  0  0  0  0  0  0  0  0  0  0  0
   -8.3907  -20.9369   32.7306 H   0  0  0  0  0  0  0  0  0  0  0  0
   -1.0585   -6.9552   32.1429 H   0  0  0  0  0  0  0  0  0  0  0  0
  1  2  1  0
  2  3  1  0
  3  4  2  0
  4  5  1  0
  5  6  2  0
  6  7  1  0
  7  8  1  0
  8  9  2  0
  9 10  1  0
 10 11  1  0
 11 12  1  0
 12 13  1  0
 13 14  1  0
 14 15  2  0
 14 16  1  0
 16 17  2  0
 17 18  1  0
 18 19  1  0
 19 20  2  0
 20 21  1  0
 21 22  1  0
 22 23  1  0
 23 24  1  0
 24 25  1  0
  7 26  2  0
 26  3  1  0
 10  6  1  0
 20 16  1  0
 25 19  1  0
  1 27  1  0
  1 28  1  0
  1 29  1  0
  4 30  1  0
  5 31  1  0
  8 32  1  0
  9 33  1  0
 11 34  1  0
 11 35  1  0
 12 36  1  0
 12 37  1  0
 13 38  1  0
 18 39  1  0
 21 40  1  0
 21 41  1  0
 22 42  1  0
 22 43  1  0
 23 44  1  0
 23 45  1  0
 24 46  1  0
 24 47  1  0
 25 48  1  0
 25 49  1  0
 26 50  1  0
M  END
>  <Energy>  (1072) 
889.86051614847622

>  <compound_id>  (1072) 
46195

>  <target_id>  (1072) 
1

>  <reference_id>  (1072) 
123

>  <inspiration_ids>  (1072) 
[40, 123]

>  <energy_score>  (1072) 
786.8308929036527

>  <distance_score>  (1072) 
6.011732524582317

>  <path>  (1072) 
/opt/xchem-fragalysis-2/maxwin/BulkDock/SCRATCH/511023/C46195-P123/C46195-P123.minimised.mol

>  <scratch_subdir>  (1072) 
/opt/xchem-fragalysis-2/maxwin/BulkDock/SCRATCH/511023/C46195-P123

>  <fragmenstein_runtime>  (1072) 
20.809861183166504

>  <fragmenstein_outcome>  (1072) 
too moved

>  <fragmenstein_mode>  (1072) 
expansion

>  <fragmenstein_error>  (1072) 


$$$$
C30254-P40
     RDKit          3D

 48 51  0  0  0  0  0  0  0  0999 V2000
   -2.9455  -15.0128   30.8605 O   0  0  0  0  0  0  0  0  0  0  0  0
   -3.9952  -14.6315   30.4965 C   0  0  0  0  0  0  0  0  0  0  0  0
   -4.0610  -12.9684   29.4512 N   0  0  0  0  0  0  0  0  0  0  0  0
   -2.7506  -11.7725   29.0241 C   0  0  0  0  0  0  0  0  0  0  0  0
   -1.4203  -10.6151   29.9805 C   0  0  0  0  0  0  0  0  0  0  0  0
   -0.6861   -9.1413   29.9727 N   0  0  0  0  0  0  0  0  0  0  0  0
   -0.1894   -8.3061   29.0195 C   0  0  0  0  0  0  0  0  0  0  0  0
    0.4980   -7.2339   29.5198 C   0  0  0  0  0  0  0  0  0  0  0  0
    0.1055   -7.1299   30.8511 C   0  0  0  0  0  0  0  0  0  0  0  0
    0.3244   -6.1309   31.8205 C   0  0  0  0  0  0  0  0  0  0  0  0
   -0.2759   -6.2402   33.0667 C   0  0  0  0  0  0  0  0  0  0  0  0
   -1.1143   -7.3086   33.3239 C   0  0  0  0  0  0  0  0  0  0  0  0
   -1.3691   -8.2878   32.3533 C   0  0  0  0  0  0  0  0  0  0  0  0
   -0.7073   -8.2423   31.1199 C   0  0  0  0  0  0  0  0  0  0  0  0
   -5.3048  -15.1591   30.8521 N   0  0  0  0  0  0  0  0  0  0  0  0
   -5.6487  -16.0735   31.6996 C   0  0  0  0  0  0  0  0  0  0  0  0
   -6.5046  -17.2845   32.4482 C   0  0  0  0  0  0  0  0  0  0  0  0
   -7.0818  -18.5555   32.2555 C   0  0  0  0  0  0  0  0  0  0  0  0
   -6.5205  -19.8716   33.1803 C   0  0  0  0  0  0  0  0  0  0  0  0
   -7.2130  -20.4312   34.3167 C   0  0  0  0  0  0  0  0  0  0  0  0
   -6.3861  -21.4056   34.8051 C   0  0  0  0  0  0  0  0  0  0  0  0
   -5.3067  -21.4365   33.9869 N   0  0  0  0  0  0  0  0  0  0  0  0
   -5.3411  -20.4839   33.0530 N   0  0  0  0  0  0  0  0  0  0  0  0
   -6.6543  -18.0026   30.6549 C   0  0  0  0  0  0  0  0  0  0  0  0
   -5.7715  -16.2872   29.8821 C   0  0  0  0  0  0  0  0  0  0  0  0
   -5.0389  -12.7183   29.2851 H   0  0  0  0  0  0  0  0  0  0  0  0
   -2.7671  -11.6430   27.9458 H   0  0  0  0  0  0  0  0  0  0  0  0
   -2.1891  -12.6300   28.9963 H   0  0  0  0  0  0  0  0  0  0  0  0
   -1.9263  -10.1435   30.8029 H   0  0  0  0  0  0  0  0  0  0  0  0
   -0.7232  -11.2510   30.5194 H   0  0  0  0  0  0  0  0  0  0  0  0
   -0.5039   -8.3064   28.0265 H   0  0  0  0  0  0  0  0  0  0  0  0
    1.0134   -6.4710   28.9490 H   0  0  0  0  0  0  0  0  0  0  0  0
    0.9493   -5.2708   31.5949 H   0  0  0  0  0  0  0  0  0  0  0  0
   -0.1106   -5.4796   33.8255 H   0  0  0  0  0  0  0  0  0  0  0  0
   -1.5944   -7.3915   34.2973 H   0  0  0  0  0  0  0  0  0  0  0  0
   -2.0846   -9.0599   32.5895 H   0  0  0  0  0  0  0  0  0  0  0  0
   -6.1316  -15.2416   32.0765 H   0  0  0  0  0  0  0  0  0  0  0  0
   -4.5931  -16.2016   31.9548 H   0  0  0  0  0  0  0  0  0  0  0  0
   -5.6620  -17.7588   32.8666 H   0  0  0  0  0  0  0  0  0  0  0  0
   -7.4030  -16.9342   32.8535 H   0  0  0  0  0  0  0  0  0  0  0  0
   -7.9501  -18.4995   32.9035 H   0  0  0  0  0  0  0  0  0  0  0  0
   -8.1662  -20.1170   34.7136 H   0  0  0  0  0  0  0  0  0  0  0  0
   -6.4306  -22.0387   35.6628 H   0  0  0  0  0  0  0  0  0  0  0  0
   -4.4695  -22.0142   34.0282 H   0  0  0  0  0  0  0  0  0  0  0  0
   -7.4546  -18.6120   30.2264 H   0  0  0  0  0  0  0  0  0  0  0  0
   -6.2225  -18.4561   29.8223 H   0  0  0  0  0  0  0  0  0  0  0  0
   -4.8266  -16.5441   29.4607 H   0  0  0  0  0  0  0  0  0  0  0  0
   -6.2723  -15.8099   29.0607 H   0  0  0  0  0  0  0  0  0  0  0  0
  1  2  2  0
  2  3  1  0
  3  4  1  0
  4  5  1  0
  5  6  1  0
  6  7  1  0
  7  8  2  0
  8  9  1  0
  9 10  2  0
 10 11  1  0
 11 12  2  0
 12 13  1  0
 13 14  2  0
  2 15  1  0
 15 16  1  0
 16 17  1  0
 17 18  1  0
 18 19  1  0
 19 20  1  0
 20 21  2  0
 21 22  1  0
 22 23  1  0
 18 24  1  0
 24 25  1  0
 14  6  1  0
 25 15  1  0
 14  9  1  0
 23 19  2  0
  3 26  1  0
  4 27  1  0
  4 28  1  0
  5 29  1  0
  5 30  1  0
  7 31  1  0
  8 32  1  0
 10 33  1  0
 11 34  1  0
 12 35  1  0
 13 36  1  0
 16 37  1  0
 16 38  1  0
 17 39  1  0
 17 40  1  0
 18 41  1  0
 20 42  1  0
 21 43  1  0
 22 44  1  0
 24 45  1  0
 24 46  1  0
 25 47  1  0
 25 48  1  0
M  END
>  <Energy>  (1073) 
680.15749893913971

>  <compound_id>  (1073) 
30254

>  <target_id>  (1073) 
1

>  <reference_id>  (1073) 
40

>  <inspiration_ids>  (1073) 
[40, 123]

>  <energy_score>  (1073) 
691.6664409357903

>  <distance_score>  (1073) 
5.026752302267011

>  <path>  (1073) 
/opt/xchem-fragalysis-2/maxwin/BulkDock/SCRATCH/511023/C30254-P40/C30254-P40.minimised.mol

>  <scratch_subdir>  (1073) 
/opt/xchem-fragalysis-2/maxwin/BulkDock/SCRATCH/511023/C30254-P40

>  <fragmenstein_runtime>  (1073) 
23.02433705329895

>  <fragmenstein_outcome>  (1073) 
too moved

>  <fragmenstein_mode>  (1073) 
expansion

>  <fragmenstein_error>  (1073) 


$$$$
C30254-P123
     RDKit          3D

 48 51  0  0  0  0  0  0  0  0999 V2000
   -4.4482  -16.4233   29.4112 O   0  0  0  0  0  0  0  0  0  0  0  0
   -5.2033  -15.8858   30.1520 C   0  0  0  0  0  0  0  0  0  0  0  0
   -5.5105  -14.1170   30.4261 N   0  0  0  0  0  0  0  0  0  0  0  0
   -4.6534  -12.6557   29.7810 C   0  0  0  0  0  0  0  0  0  0  0  0
   -2.9764  -11.7745   30.2210 C   0  0  0  0  0  0  0  0  0  0  0  0
   -1.8586  -10.5080   30.6123 N   0  0  0  0  0  0  0  0  0  0  0  0
   -0.8440  -10.0755   29.6832 C   0  0  0  0  0  0  0  0  0  0  0  0
   -0.6061   -8.7215   29.8080 C   0  0  0  0  0  0  0  0  0  0  0  0
   -1.0950   -8.2863   31.0594 C   0  0  0  0  0  0  0  0  0  0  0  0
   -0.9581   -7.0490   31.7171 C   0  0  0  0  0  0  0  0  0  0  0  0
   -1.3824   -6.9190   33.0265 C   0  0  0  0  0  0  0  0  0  0  0  0
   -1.9303   -8.0140   33.6630 C   0  0  0  0  0  0  0  0  0  0  0  0
   -2.1604   -9.2249   32.9836 C   0  0  0  0  0  0  0  0  0  0  0  0
   -1.8402   -9.3873   31.6235 C   0  0  0  0  0  0  0  0  0  0  0  0
   -6.0917  -16.4562   31.2102 N   0  0  0  0  0  0  0  0  0  0  0  0
   -6.4074  -17.9188   31.6002 C   0  0  0  0  0  0  0  0  0  0  0  0
   -5.8967  -19.2816   32.5923 C   0  0  0  0  0  0  0  0  0  0  0  0
   -7.2098  -19.3152   33.7104 C   0  0  0  0  0  0  0  0  0  0  0  0
   -8.4264  -20.7031   33.2072 C   0  0  0  0  0  0  0  0  0  0  0  0
   -9.9058  -20.6719   32.4061 C   0  0  0  0  0  0  0  0  0  0  0  0
  -10.4154  -21.9904   32.1033 C   0  0  0  0  0  0  0  0  0  0  0  0
   -9.4448  -22.9661   32.7579 N   0  0  0  0  0  0  0  0  0  0  0  0
   -8.1486  -22.1002   33.2942 N   0  0  0  0  0  0  0  0  0  0  0  0
   -7.1834  -17.5848   33.7803 C   0  0  0  0  0  0  0  0  0  0  0  0
   -5.8150  -16.7133   32.7677 C   0  0  0  0  0  0  0  0  0  0  0  0
   -6.2748  -13.9829   31.0582 H   0  0  0  0  0  0  0  0  0  0  0  0
   -3.8475  -13.3282   29.6227 H   0  0  0  0  0  0  0  0  0  0  0  0
   -5.2458  -12.1416   29.0702 H   0  0  0  0  0  0  0  0  0  0  0  0
   -2.8466  -11.5441   29.1853 H   0  0  0  0  0  0  0  0  0  0  0  0
   -3.5931  -11.2098   30.9016 H   0  0  0  0  0  0  0  0  0  0  0  0
   -0.5399  -10.6592   28.8479 H   0  0  0  0  0  0  0  0  0  0  0  0
   -0.1498   -8.1027   29.0492 H   0  0  0  0  0  0  0  0  0  0  0  0
   -0.4100   -6.2391   31.2434 H   0  0  0  0  0  0  0  0  0  0  0  0
   -1.1926   -5.9993   33.5735 H   0  0  0  0  0  0  0  0  0  0  0  0
   -2.1229   -7.9588   34.7325 H   0  0  0  0  0  0  0  0  0  0  0  0
   -2.3327  -10.0654   33.6264 H   0  0  0  0  0  0  0  0  0  0  0  0
   -7.4029  -17.7835   31.8943 H   0  0  0  0  0  0  0  0  0  0  0  0
   -6.6774  -18.3521   30.6234 H   0  0  0  0  0  0  0  0  0  0  0  0
   -4.8502  -19.2709   32.7068 H   0  0  0  0  0  0  0  0  0  0  0  0
   -5.8434  -20.2596   32.0768 H   0  0  0  0  0  0  0  0  0  0  0  0
   -7.2705  -19.3767   34.7822 H   0  0  0  0  0  0  0  0  0  0  0  0
  -10.4988  -19.7985   32.4632 H   0  0  0  0  0  0  0  0  0  0  0  0
  -11.3480  -22.3951   31.7355 H   0  0  0  0  0  0  0  0  0  0  0  0
   -9.4307  -23.9826   32.8015 H   0  0  0  0  0  0  0  0  0  0  0  0
   -6.9585  -17.3420   34.8226 H   0  0  0  0  0  0  0  0  0  0  0  0
   -8.1478  -17.0969   33.6227 H   0  0  0  0  0  0  0  0  0  0  0  0
   -5.8350  -15.8334   33.3690 H   0  0  0  0  0  0  0  0  0  0  0  0
   -4.8090  -17.0792   32.7883 H   0  0  0  0  0  0  0  0  0  0  0  0
  1  2  2  0
  2  3  1  0
  3  4  1  0
  4  5  1  0
  5  6  1  0
  6  7  1  0
  7  8  2  0
  8  9  1  0
  9 10  2  0
 10 11  1  0
 11 12  2  0
 12 13  1  0
 13 14  2  0
  2 15  1  0
 15 16  1  0
 16 17  1  0
 17 18  1  0
 18 19  1  0
 19 20  1  0
 20 21  2  0
 21 22  1  0
 22 23  1  0
 18 24  1  0
 24 25  1  0
 14  6  1  0
 25 15  1  0
 14  9  1  0
 23 19  2  0
  3 26  1  0
  4 27  1  0
  4 28  1  0
  5 29  1  0
  5 30  1  0
  7 31  1  0
  8 32  1  0
 10 33  1  0
 11 34  1  0
 12 35  1  0
 13 36  1  0
 16 37  1  0
 16 38  1  0
 17 39  1  0
 17 40  1  0
 18 41  1  0
 20 42  1  0
 21 43  1  0
 22 44  1  0
 24 45  1  0
 24 46  1  0
 25 47  1  0
 25 48  1  0
M  END
>  <Energy>  (1074) 
633.59627017785851

>  <compound_id>  (1074) 
30254

>  <target_id>  (1074) 
1

>  <reference_id>  (1074) 
123

>  <inspiration_ids>  (1074) 
[40, 123]

>  <energy_score>  (1074) 
645.1052121745274

>  <distance_score>  (1074) 
4.4587434933871295

>  <path>  (1074) 
/opt/xchem-fragalysis-2/maxwin/BulkDock/SCRATCH/511023/C30254-P123/C30254-P123.minimised.mol

>  <scratch_subdir>  (1074) 
/opt/xchem-fragalysis-2/maxwin/BulkDock/SCRATCH/511023/C30254-P123

>  <fragmenstein_runtime>  (1074) 
21.418352842330933

>  <fragmenstein_outcome>  (1074) 
too moved

>  <fragmenstein_mode>  (1074) 
expansion

>  <fragmenstein_error>  (1074) 


$$$$
C46196-P40
     RDKit          3D

 40 43  0  0  0  0  0  0  0  0999 V2000
   -7.1649  -19.3671   31.1034 O   0  0  0  0  0  0  0  0  0  0  0  0
   -7.1995  -18.9671   32.2077 C   0  0  0  0  0  0  0  0  0  0  0  0
   -6.6090  -17.2396   32.3687 N   0  0  0  0  0  0  0  0  0  0  0  0
   -5.7498  -15.8869   31.0361 C   0  0  0  0  0  0  0  0  0  0  0  0
   -5.3748  -13.9383   30.3224 C   0  0  0  0  0  0  0  0  0  0  0  0
   -4.1869  -12.5381   29.3684 N   0  0  0  0  0  0  0  0  0  0  0  0
   -2.7212  -12.7435   29.0630 C   0  0  0  0  0  0  0  0  0  0  0  0
   -2.5582  -11.7123   28.2296 C   0  0  0  0  0  0  0  0  0  0  0  0
   -1.9633  -11.0728   29.2846 C   0  0  0  0  0  0  0  0  0  0  0  0
   -0.8675  -10.0088   29.5934 C   0  0  0  0  0  0  0  0  0  0  0  0
   -0.7207   -9.0326   30.6224 C   0  0  0  0  0  0  0  0  0  0  0  0
   -1.6700   -8.9761   31.5762 C   0  0  0  0  0  0  0  0  0  0  0  0
   -1.5453   -7.7679   32.7650 Cl  0  0  0  0  0  0  0  0  0  0  0  0
   -2.8478   -9.7451   31.2330 C   0  0  0  0  0  0  0  0  0  0  0  0
   -3.1455  -11.1756   29.9785 C   0  0  0  0  0  0  0  0  0  0  0  0
   -7.7389  -20.4859   33.4661 C   0  0  0  0  0  0  0  0  0  0  0  0
   -7.0027  -21.4646   34.0746 N   0  0  0  0  0  0  0  0  0  0  0  0
   -7.7474  -22.7994   34.1192 N   0  0  0  0  0  0  0  0  0  0  0  0
   -9.0036  -23.2638   32.9410 C   0  0  0  0  0  0  0  0  0  0  0  0
   -9.1543  -21.6627   32.5206 C   0  0  0  0  0  0  0  0  0  0  0  0
  -10.5402  -21.2906   31.2593 C   0  0  0  0  0  0  0  0  0  0  0  0
  -11.2244  -22.6377   31.3157 C   0  0  0  0  0  0  0  0  0  0  0  0
  -10.1567  -23.9119   32.2579 C   0  0  0  0  0  0  0  0  0  0  0  0
   -6.7488  -16.9897   33.2144 H   0  0  0  0  0  0  0  0  0  0  0  0
   -6.1637  -15.1807   31.7438 H   0  0  0  0  0  0  0  0  0  0  0  0
   -4.7020  -15.9591   31.3847 H   0  0  0  0  0  0  0  0  0  0  0  0
   -4.4141  -14.4863   30.4130 H   0  0  0  0  0  0  0  0  0  0  0  0
   -6.1323  -13.9256   29.5438 H   0  0  0  0  0  0  0  0  0  0  0  0
   -2.4359  -13.8497   28.9452 H   0  0  0  0  0  0  0  0  0  0  0  0
   -2.4126  -11.7253   27.1526 H   0  0  0  0  0  0  0  0  0  0  0  0
   -0.1768   -9.8413   28.8039 H   0  0  0  0  0  0  0  0  0  0  0  0
    0.1063   -8.3300   30.6014 H   0  0  0  0  0  0  0  0  0  0  0  0
   -3.7538   -9.1343   31.5088 H   0  0  0  0  0  0  0  0  0  0  0  0
   -7.2824  -23.4720   34.7176 H   0  0  0  0  0  0  0  0  0  0  0  0
  -10.9175  -20.3198   31.4549 H   0  0  0  0  0  0  0  0  0  0  0  0
  -10.4423  -21.1543   30.1693 H   0  0  0  0  0  0  0  0  0  0  0  0
  -10.9270  -22.8768   30.2461 H   0  0  0  0  0  0  0  0  0  0  0  0
  -12.1648  -22.5796   30.8092 H   0  0  0  0  0  0  0  0  0  0  0  0
   -9.4962  -24.4709   31.6305 H   0  0  0  0  0  0  0  0  0  0  0  0
  -10.7481  -24.5798   32.8026 H   0  0  0  0  0  0  0  0  0  0  0  0
  1  2  2  0
  2  3  1  0
  3  4  1  0
  4  5  1  0
  5  6  1  0
  6  7  1  0
  7  8  2  0
  8  9  1  0
  9 10  2  0
 10 11  1  0
 11 12  2  0
 12 13  1  0
 12 14  1  0
 14 15  2  0
  2 16  1  0
 16 17  2  0
 17 18  1  0
 18 19  1  0
 19 20  2  0
 20 21  1  0
 21 22  1  0
 22 23  1  0
 15  6  1  0
 20 16  1  0
 15  9  1  0
 23 19  1  0
  3 24  1  0
  4 25  1  0
  4 26  1  0
  5 27  1  0
  5 28  1  0
  7 29  1  0
  8 30  1  0
 10 31  1  0
 11 32  1  0
 14 33  1  0
 18 34  1  0
 21 35  1  0
 21 36  1  0
 22 37  1  0
 22 38  1  0
 23 39  1  0
 23 40  1  0
M  END
>  <Energy>  (1075) 
1360.5079426972629

>  <compound_id>  (1075) 
46196

>  <target_id>  (1075) 
1

>  <reference_id>  (1075) 
40

>  <inspiration_ids>  (1075) 
[40, 123]

>  <energy_score>  (1075) 
1267.1315129457448

>  <distance_score>  (1075) 
5.371017942518024

>  <path>  (1075) 
/opt/xchem-fragalysis-2/maxwin/BulkDock/SCRATCH/511023/C46196-P40/C46196-P40.minimised.mol

>  <scratch_subdir>  (1075) 
/opt/xchem-fragalysis-2/maxwin/BulkDock/SCRATCH/511023/C46196-P40

>  <fragmenstein_runtime>  (1075) 
20.63881754875183

>  <fragmenstein_outcome>  (1075) 
too moved

>  <fragmenstein_mode>  (1075) 
expansion

>  <fragmenstein_error>  (1075) 


$$$$
C46196-P123
     RDKit          3D

 40 43  0  0  0  0  0  0  0  0999 V2000
   -5.9829  -15.4201   30.3780 O   0  0  0  0  0  0  0  0  0  0  0  0
   -6.4614  -14.5188   31.0282 C   0  0  0  0  0  0  0  0  0  0  0  0
   -6.1299  -13.0844   31.0249 N   0  0  0  0  0  0  0  0  0  0  0  0
   -4.9341  -12.2332   30.2412 C   0  0  0  0  0  0  0  0  0  0  0  0
   -3.1255  -11.7558   30.1577 C   0  0  0  0  0  0  0  0  0  0  0  0
   -1.9939  -10.5717   30.6928 N   0  0  0  0  0  0  0  0  0  0  0  0
   -0.9369  -10.1350   29.7878 C   0  0  0  0  0  0  0  0  0  0  0  0
   -0.6455   -8.7935   29.9406 C   0  0  0  0  0  0  0  0  0  0  0  0
   -1.1783   -8.3547   31.1714 C   0  0  0  0  0  0  0  0  0  0  0  0
   -1.0278   -7.1201   31.8359 C   0  0  0  0  0  0  0  0  0  0  0  0
   -1.4482   -6.9887   33.1463 C   0  0  0  0  0  0  0  0  0  0  0  0
   -1.9816   -8.0912   33.7750 C   0  0  0  0  0  0  0  0  0  0  0  0
   -2.3631   -8.0071   35.4568 Cl  0  0  0  0  0  0  0  0  0  0  0  0
   -2.2095   -9.3003   33.0886 C   0  0  0  0  0  0  0  0  0  0  0  0
   -1.9525   -9.4551   31.7093 C   0  0  0  0  0  0  0  0  0  0  0  0
   -7.7866  -14.9797   32.4386 C   0  0  0  0  0  0  0  0  0  0  0  0
   -6.9903  -15.9086   33.3020 N   0  0  0  0  0  0  0  0  0  0  0  0
   -7.7111  -16.7986   33.9659 N   0  0  0  0  0  0  0  0  0  0  0  0
   -9.0107  -16.5739   33.9448 C   0  0  0  0  0  0  0  0  0  0  0  0
   -9.2656  -15.6306   32.9434 C   0  0  0  0  0  0  0  0  0  0  0  0
  -10.7119  -15.1164   33.3729 C   0  0  0  0  0  0  0  0  0  0  0  0
  -11.0704  -15.8072   34.7381 C   0  0  0  0  0  0  0  0  0  0  0  0
  -10.0381  -16.9072   34.9446 C   0  0  0  0  0  0  0  0  0  0  0  0
   -6.6662  -12.6229   31.7520 H   0  0  0  0  0  0  0  0  0  0  0  0
   -5.2872  -12.1587   29.2362 H   0  0  0  0  0  0  0  0  0  0  0  0
   -5.2318  -11.4289   30.8902 H   0  0  0  0  0  0  0  0  0  0  0  0
   -2.5632  -12.6337   30.1079 H   0  0  0  0  0  0  0  0  0  0  0  0
   -3.0413  -11.5648   29.0996 H   0  0  0  0  0  0  0  0  0  0  0  0
   -0.6588  -10.6964   28.9319 H   0  0  0  0  0  0  0  0  0  0  0  0
   -0.1669   -8.1776   29.1966 H   0  0  0  0  0  0  0  0  0  0  0  0
   -0.4675   -6.3144   31.3684 H   0  0  0  0  0  0  0  0  0  0  0  0
   -1.2651   -6.0657   33.6887 H   0  0  0  0  0  0  0  0  0  0  0  0
   -2.3169  -10.1501   33.7382 H   0  0  0  0  0  0  0  0  0  0  0  0
   -7.2134  -17.4822   34.5206 H   0  0  0  0  0  0  0  0  0  0  0  0
  -10.7702  -14.0759   33.6432 H   0  0  0  0  0  0  0  0  0  0  0  0
  -11.5036  -15.3027   32.6566 H   0  0  0  0  0  0  0  0  0  0  0  0
  -12.0995  -16.1857   34.7451 H   0  0  0  0  0  0  0  0  0  0  0  0
  -11.0233  -15.0909   35.5655 H   0  0  0  0  0  0  0  0  0  0  0  0
  -10.5493  -17.8358   34.7516 H   0  0  0  0  0  0  0  0  0  0  0  0
   -9.6535  -16.9107   35.9682 H   0  0  0  0  0  0  0  0  0  0  0  0
  1  2  2  0
  2  3  1  0
  3  4  1  0
  4  5  1  0
  5  6  1  0
  6  7  1  0
  7  8  2  0
  8  9  1  0
  9 10  2  0
 10 11  1  0
 11 12  2  0
 12 13  1  0
 12 14  1  0
 14 15  2  0
  2 16  1  0
 16 17  2  0
 17 18  1  0
 18 19  1  0
 19 20  2  0
 20 21  1  0
 21 22  1  0
 22 23  1  0
 15  6  1  0
 20 16  1  0
 15  9  1  0
 23 19  1  0
  3 24  1  0
  4 25  1  0
  4 26  1  0
  5 27  1  0
  5 28  1  0
  7 29  1  0
  8 30  1  0
 10 31  1  0
 11 32  1  0
 14 33  1  0
 18 34  1  0
 21 35  1  0
 21 36  1  0
 22 37  1  0
 22 38  1  0
 23 39  1  0
 23 40  1  0
M  END
>  <Energy>  (1076) 
424.06746854173252

>  <compound_id>  (1076) 
46196

>  <target_id>  (1076) 
1

>  <reference_id>  (1076) 
123

>  <inspiration_ids>  (1076) 
[40, 123]

>  <energy_score>  (1076) 
330.6910387902281

>  <distance_score>  (1076) 
7.348707828926383

>  <path>  (1076) 
/opt/xchem-fragalysis-2/maxwin/BulkDock/SCRATCH/511023/C46196-P123/C46196-P123.minimised.mol

>  <scratch_subdir>  (1076) 
/opt/xchem-fragalysis-2/maxwin/BulkDock/SCRATCH/511023/C46196-P123

>  <fragmenstein_runtime>  (1076) 
11.526395559310913

>  <fragmenstein_outcome>  (1076) 
too moved

>  <fragmenstein_mode>  (1076) 
expansion

>  <fragmenstein_error>  (1076) 


$$$$
C46196-P40
     RDKit          3D

 40 43  0  0  0  0  0  0  0  0999 V2000
   -7.1649  -19.3671   31.1034 O   0  0  0  0  0  0  0  0  0  0  0  0
   -7.1995  -18.9671   32.2077 C   0  0  0  0  0  0  0  0  0  0  0  0
   -6.6090  -17.2396   32.3687 N   0  0  0  0  0  0  0  0  0  0  0  0
   -5.7498  -15.8869   31.0361 C   0  0  0  0  0  0  0  0  0  0  0  0
   -5.3748  -13.9383   30.3224 C   0  0  0  0  0  0  0  0  0  0  0  0
   -4.1869  -12.5381   29.3684 N   0  0  0  0  0  0  0  0  0  0  0  0
   -2.7212  -12.7435   29.0630 C   0  0  0  0  0  0  0  0  0  0  0  0
   -2.5582  -11.7123   28.2296 C   0  0  0  0  0  0  0  0  0  0  0  0
   -1.9633  -11.0728   29.2846 C   0  0  0  0  0  0  0  0  0  0  0  0
   -0.8675  -10.0088   29.5934 C   0  0  0  0  0  0  0  0  0  0  0  0
   -0.7207   -9.0326   30.6224 C   0  0  0  0  0  0  0  0  0  0  0  0
   -1.6700   -8.9761   31.5762 C   0  0  0  0  0  0  0  0  0  0  0  0
   -1.5453   -7.7679   32.7650 Cl  0  0  0  0  0  0  0  0  0  0  0  0
   -2.8478   -9.7451   31.2330 C   0  0  0  0  0  0  0  0  0  0  0  0
   -3.1455  -11.1756   29.9785 C   0  0  0  0  0  0  0  0  0  0  0  0
   -7.7389  -20.4859   33.4661 C   0  0  0  0  0  0  0  0  0  0  0  0
   -7.0027  -21.4646   34.0746 N   0  0  0  0  0  0  0  0  0  0  0  0
   -7.7474  -22.7994   34.1192 N   0  0  0  0  0  0  0  0  0  0  0  0
   -9.0036  -23.2638   32.9410 C   0  0  0  0  0  0  0  0  0  0  0  0
   -9.1543  -21.6627   32.5206 C   0  0  0  0  0  0  0  0  0  0  0  0
  -10.5402  -21.2906   31.2593 C   0  0  0  0  0  0  0  0  0  0  0  0
  -11.2244  -22.6377   31.3157 C   0  0  0  0  0  0  0  0  0  0  0  0
  -10.1567  -23.9119   32.2579 C   0  0  0  0  0  0  0  0  0  0  0  0
   -6.7488  -16.9897   33.2144 H   0  0  0  0  0  0  0  0  0  0  0  0
   -6.1637  -15.1807   31.7438 H   0  0  0  0  0  0  0  0  0  0  0  0
   -4.7020  -15.9591   31.3847 H   0  0  0  0  0  0  0  0  0  0  0  0
   -4.4141  -14.4863   30.4130 H   0  0  0  0  0  0  0  0  0  0  0  0
   -6.1323  -13.9256   29.5438 H   0  0  0  0  0  0  0  0  0  0  0  0
   -2.4359  -13.8497   28.9452 H   0  0  0  0  0  0  0  0  0  0  0  0
   -2.4126  -11.7253   27.1526 H   0  0  0  0  0  0  0  0  0  0  0  0
   -0.1768   -9.8413   28.8039 H   0  0  0  0  0  0  0  0  0  0  0  0
    0.1063   -8.3300   30.6014 H   0  0  0  0  0  0  0  0  0  0  0  0
   -3.7538   -9.1343   31.5088 H   0  0  0  0  0  0  0  0  0  0  0  0
   -7.2824  -23.4720   34.7176 H   0  0  0  0  0  0  0  0  0  0  0  0
  -10.9175  -20.3198   31.4549 H   0  0  0  0  0  0  0  0  0  0  0  0
  -10.4423  -21.1543   30.1693 H   0  0  0  0  0  0  0  0  0  0  0  0
  -10.9270  -22.8768   30.2461 H   0  0  0  0  0  0  0  0  0  0  0  0
  -12.1648  -22.5796   30.8092 H   0  0  0  0  0  0  0  0  0  0  0  0
   -9.4962  -24.4709   31.6305 H   0  0  0  0  0  0  0  0  0  0  0  0
  -10.7481  -24.5798   32.8026 H   0  0  0  0  0  0  0  0  0  0  0  0
  1  2  2  0
  2  3  1  0
  3  4  1  0
  4  5  1  0
  5  6  1  0
  6  7  1  0
  7  8  2  0
  8  9  1  0
  9 10  2  0
 10 11  1  0
 11 12  2  0
 12 13  1  0
 12 14  1  0
 14 15  2  0
  2 16  1  0
 16 17  2  0
 17 18  1  0
 18 19  1  0
 19 20  2  0
 20 21  1  0
 21 22  1  0
 22 23  1  0
 15  6  1  0
 20 16  1  0
 15  9  1  0
 23 19  1  0
  3 24  1  0
  4 25  1  0
  4 26  1  0
  5 27  1  0
  5 28  1  0
  7 29  1  0
  8 30  1  0
 10 31  1  0
 11 32  1  0
 14 33  1  0
 18 34  1  0
 21 35  1  0
 21 36  1  0
 22 37  1  0
 22 38  1  0
 23 39  1  0
 23 40  1  0
M  END
>  <Energy>  (1077) 
1360.5079426972629

>  <compound_id>  (1077) 
46196

>  <target_id>  (1077) 
1

>  <reference_id>  (1077) 
40

>  <inspiration_ids>  (1077) 
[40, 123]

>  <energy_score>  (1077) 
1267.1315129457448

>  <distance_score>  (1077) 
5.371017942518024

>  <path>  (1077) 
/opt/xchem-fragalysis-2/maxwin/BulkDock/SCRATCH/511023/C46196-P40/C46196-P40.minimised.mol

>  <scratch_subdir>  (1077) 
/opt/xchem-fragalysis-2/maxwin/BulkDock/SCRATCH/511023/C46196-P40

>  <fragmenstein_runtime>  (1077) 
17.597784996032715

>  <fragmenstein_outcome>  (1077) 
too moved

>  <fragmenstein_mode>  (1077) 
expansion

>  <fragmenstein_error>  (1077) 


$$$$
C46196-P123
     RDKit          3D

 40 43  0  0  0  0  0  0  0  0999 V2000
   -5.9829  -15.4201   30.3780 O   0  0  0  0  0  0  0  0  0  0  0  0
   -6.4614  -14.5188   31.0282 C   0  0  0  0  0  0  0  0  0  0  0  0
   -6.1299  -13.0844   31.0249 N   0  0  0  0  0  0  0  0  0  0  0  0
   -4.9341  -12.2332   30.2412 C   0  0  0  0  0  0  0  0  0  0  0  0
   -3.1255  -11.7558   30.1577 C   0  0  0  0  0  0  0  0  0  0  0  0
   -1.9939  -10.5717   30.6928 N   0  0  0  0  0  0  0  0  0  0  0  0
   -0.9369  -10.1350   29.7878 C   0  0  0  0  0  0  0  0  0  0  0  0
   -0.6455   -8.7935   29.9406 C   0  0  0  0  0  0  0  0  0  0  0  0
   -1.1783   -8.3547   31.1714 C   0  0  0  0  0  0  0  0  0  0  0  0
   -1.0278   -7.1201   31.8359 C   0  0  0  0  0  0  0  0  0  0  0  0
   -1.4482   -6.9887   33.1463 C   0  0  0  0  0  0  0  0  0  0  0  0
   -1.9816   -8.0912   33.7750 C   0  0  0  0  0  0  0  0  0  0  0  0
   -2.3631   -8.0071   35.4568 Cl  0  0  0  0  0  0  0  0  0  0  0  0
   -2.2095   -9.3003   33.0886 C   0  0  0  0  0  0  0  0  0  0  0  0
   -1.9525   -9.4551   31.7093 C   0  0  0  0  0  0  0  0  0  0  0  0
   -7.7866  -14.9797   32.4386 C   0  0  0  0  0  0  0  0  0  0  0  0
   -6.9903  -15.9086   33.3020 N   0  0  0  0  0  0  0  0  0  0  0  0
   -7.7111  -16.7986   33.9659 N   0  0  0  0  0  0  0  0  0  0  0  0
   -9.0107  -16.5739   33.9448 C   0  0  0  0  0  0  0  0  0  0  0  0
   -9.2656  -15.6306   32.9434 C   0  0  0  0  0  0  0  0  0  0  0  0
  -10.7119  -15.1164   33.3729 C   0  0  0  0  0  0  0  0  0  0  0  0
  -11.0704  -15.8072   34.7381 C   0  0  0  0  0  0  0  0  0  0  0  0
  -10.0381  -16.9072   34.9446 C   0  0  0  0  0  0  0  0  0  0  0  0
   -6.6662  -12.6229   31.7520 H   0  0  0  0  0  0  0  0  0  0  0  0
   -5.2872  -12.1587   29.2362 H   0  0  0  0  0  0  0  0  0  0  0  0
   -5.2318  -11.4289   30.8902 H   0  0  0  0  0  0  0  0  0  0  0  0
   -2.5632  -12.6337   30.1079 H   0  0  0  0  0  0  0  0  0  0  0  0
   -3.0413  -11.5648   29.0996 H   0  0  0  0  0  0  0  0  0  0  0  0
   -0.6588  -10.6964   28.9319 H   0  0  0  0  0  0  0  0  0  0  0  0
   -0.1669   -8.1776   29.1966 H   0  0  0  0  0  0  0  0  0  0  0  0
   -0.4675   -6.3144   31.3684 H   0  0  0  0  0  0  0  0  0  0  0  0
   -1.2651   -6.0657   33.6887 H   0  0  0  0  0  0  0  0  0  0  0  0
   -2.3169  -10.1501   33.7382 H   0  0  0  0  0  0  0  0  0  0  0  0
   -7.2134  -17.4822   34.5206 H   0  0  0  0  0  0  0  0  0  0  0  0
  -10.7702  -14.0759   33.6432 H   0  0  0  0  0  0  0  0  0  0  0  0
  -11.5036  -15.3027   32.6566 H   0  0  0  0  0  0  0  0  0  0  0  0
  -12.0995  -16.1857   34.7451 H   0  0  0  0  0  0  0  0  0  0  0  0
  -11.0233  -15.0909   35.5655 H   0  0  0  0  0  0  0  0  0  0  0  0
  -10.5493  -17.8358   34.7516 H   0  0  0  0  0  0  0  0  0  0  0  0
   -9.6535  -16.9107   35.9682 H   0  0  0  0  0  0  0  0  0  0  0  0
  1  2  2  0
  2  3  1  0
  3  4  1  0
  4  5  1  0
  5  6  1  0
  6  7  1  0
  7  8  2  0
  8  9  1  0
  9 10  2  0
 10 11  1  0
 11 12  2  0
 12 13  1  0
 12 14  1  0
 14 15  2  0
  2 16  1  0
 16 17  2  0
 17 18  1  0
 18 19  1  0
 19 20  2  0
 20 21  1  0
 21 22  1  0
 22 23  1  0
 15  6  1  0
 20 16  1  0
 15  9  1  0
 23 19  1  0
  3 24  1  0
  4 25  1  0
  4 26  1  0
  5 27  1  0
  5 28  1  0
  7 29  1  0
  8 30  1  0
 10 31  1  0
 11 32  1  0
 14 33  1  0
 18 34  1  0
 21 35  1  0
 21 36  1  0
 22 37  1  0
 22 38  1  0
 23 39  1  0
 23 40  1  0
M  END
>  <Energy>  (1078) 
424.06746854173252

>  <compound_id>  (1078) 
46196

>  <target_id>  (1078) 
1

>  <reference_id>  (1078) 
123

>  <inspiration_ids>  (1078) 
[40, 123]

>  <energy_score>  (1078) 
330.6910387902281

>  <distance_score>  (1078) 
7.348707828926383

>  <path>  (1078) 
/opt/xchem-fragalysis-2/maxwin/BulkDock/SCRATCH/511023/C46196-P123/C46196-P123.minimised.mol

>  <scratch_subdir>  (1078) 
/opt/xchem-fragalysis-2/maxwin/BulkDock/SCRATCH/511023/C46196-P123

>  <fragmenstein_runtime>  (1078) 
11.23338794708252

>  <fragmenstein_outcome>  (1078) 
too moved

>  <fragmenstein_mode>  (1078) 
expansion

>  <fragmenstein_error>  (1078) 


$$$$
C30255-P40
     RDKit          3D

 33 35  0  0  0  0  0  0  0  0999 V2000
   -4.5503  -16.1645   31.7494 O   0  0  0  0  0  0  0  0  0  0  0  0
   -5.6862  -15.8730   31.6947 C   0  0  0  0  0  0  0  0  0  0  0  0
   -6.1270  -14.4991   30.8444 N   0  0  0  0  0  0  0  0  0  0  0  0
   -5.1880  -13.3756   29.8379 C   0  0  0  0  0  0  0  0  0  0  0  0
   -3.4413  -12.1446   29.3815 C   0  0  0  0  0  0  0  0  0  0  0  0
   -1.9172  -10.9690   29.8669 N   0  0  0  0  0  0  0  0  0  0  0  0
   -1.0011  -10.2402   28.9413 C   0  0  0  0  0  0  0  0  0  0  0  0
   -0.2341   -9.1546   29.2197 C   0  0  0  0  0  0  0  0  0  0  0  0
   -0.5563   -8.7315   30.4567 C   0  0  0  0  0  0  0  0  0  0  0  0
   -0.1206   -7.5059   31.0405 C   0  0  0  0  0  0  0  0  0  0  0  0
   -0.5158   -7.1295   32.2863 C   0  0  0  0  0  0  0  0  0  0  0  0
    0.0559   -5.6985   33.0167 Cl  0  0  0  0  0  0  0  0  0  0  0  0
   -1.4504   -7.9127   32.8684 C   0  0  0  0  0  0  0  0  0  0  0  0
   -1.9731   -9.0601   32.2034 C   0  0  0  0  0  0  0  0  0  0  0  0
   -1.4592   -9.7165   31.0296 C   0  0  0  0  0  0  0  0  0  0  0  0
   -6.8805  -17.2724   32.5499 C   0  0  0  0  0  0  0  0  0  0  0  0
   -8.3630  -17.5045   33.5827 C   0  0  0  0  0  0  0  0  0  0  0  0
   -8.4783  -18.7740   34.1034 C   0  0  0  0  0  0  0  0  0  0  0  0
   -7.3581  -19.3436   33.6077 N   0  0  0  0  0  0  0  0  0  0  0  0
   -6.6184  -18.6107   32.7524 N   0  0  0  0  0  0  0  0  0  0  0  0
   -7.1133  -14.3591   30.9756 H   0  0  0  0  0  0  0  0  0  0  0  0
   -6.1115  -13.2971   29.3041 H   0  0  0  0  0  0  0  0  0  0  0  0
   -4.5973  -14.2267   30.2785 H   0  0  0  0  0  0  0  0  0  0  0  0
   -3.3305  -11.8969   28.3287 H   0  0  0  0  0  0  0  0  0  0  0  0
   -3.8298  -11.3683   29.9155 H   0  0  0  0  0  0  0  0  0  0  0  0
   -1.2183  -10.6555   27.9916 H   0  0  0  0  0  0  0  0  0  0  0  0
    0.4020   -8.5486   28.5959 H   0  0  0  0  0  0  0  0  0  0  0  0
    0.5517   -6.8599   30.4813 H   0  0  0  0  0  0  0  0  0  0  0  0
   -1.8461   -7.6474   33.8470 H   0  0  0  0  0  0  0  0  0  0  0  0
   -2.8019   -9.3738   32.7803 H   0  0  0  0  0  0  0  0  0  0  0  0
   -9.1975  -16.8019   33.7262 H   0  0  0  0  0  0  0  0  0  0  0  0
   -9.1979  -19.2753   34.7272 H   0  0  0  0  0  0  0  0  0  0  0  0
   -7.1185  -20.3231   33.6763 H   0  0  0  0  0  0  0  0  0  0  0  0
  1  2  2  0
  2  3  1  0
  3  4  1  0
  4  5  1  0
  5  6  1  0
  6  7  1  0
  7  8  2  0
  8  9  1  0
  9 10  2  0
 10 11  1  0
 11 12  1  0
 11 13  2  0
 13 14  1  0
 14 15  2  0
  2 16  1  0
 16 17  1  0
 17 18  2  0
 18 19  1  0
 19 20  1  0
 15  6  1  0
 20 16  2  0
 15  9  1  0
  3 21  1  0
  4 22  1  0
  4 23  1  0
  5 24  1  0
  5 25  1  0
  7 26  1  0
  8 27  1  0
 10 28  1  0
 13 29  1  0
 14 30  1  0
 17 31  1  0
 18 32  1  0
 19 33  1  0
M  END
>  <Energy>  (1079) 
747.0322459231694

>  <compound_id>  (1079) 
30255

>  <target_id>  (1079) 
1

>  <reference_id>  (1079) 
40

>  <inspiration_ids>  (1079) 
[40, 123]

>  <energy_score>  (1079) 
691.0034019973255

>  <distance_score>  (1079) 
5.885164175298378

>  <path>  (1079) 
/opt/xchem-fragalysis-2/maxwin/BulkDock/SCRATCH/511023/C30255-P40/C30255-P40.minimised.mol

>  <scratch_subdir>  (1079) 
/opt/xchem-fragalysis-2/maxwin/BulkDock/SCRATCH/511023/C30255-P40

>  <fragmenstein_runtime>  (1079) 
14.667205810546875

>  <fragmenstein_outcome>  (1079) 
too moved

>  <fragmenstein_mode>  (1079) 
expansion

>  <fragmenstein_error>  (1079) 


$$$$
C30255-P123
     RDKit          3D

 33 35  0  0  0  0  0  0  0  0999 V2000
   -7.0413  -15.1863   33.9269 O   0  0  0  0  0  0  0  0  0  0  0  0
   -6.7083  -16.0382   33.1592 C   0  0  0  0  0  0  0  0  0  0  0  0
   -6.0232  -15.7196   31.5214 N   0  0  0  0  0  0  0  0  0  0  0  0
   -5.8123  -14.0814   30.5467 C   0  0  0  0  0  0  0  0  0  0  0  0
   -4.9824  -12.3117   30.5904 C   0  0  0  0  0  0  0  0  0  0  0  0
   -3.6449  -11.4088   30.8009 N   0  0  0  0  0  0  0  0  0  0  0  0
   -2.5322  -11.4659   30.0116 C   0  0  0  0  0  0  0  0  0  0  0  0
   -1.4980  -10.6326   30.4368 C   0  0  0  0  0  0  0  0  0  0  0  0
   -1.8715  -10.0234   31.6880 C   0  0  0  0  0  0  0  0  0  0  0  0
   -1.3401   -9.2467   32.7760 C   0  0  0  0  0  0  0  0  0  0  0  0
   -1.4856   -7.9496   32.6459 C   0  0  0  0  0  0  0  0  0  0  0  0
   -0.7709   -6.7266   33.5940 Cl  0  0  0  0  0  0  0  0  0  0  0  0
   -2.7347   -7.7989   32.1996 C   0  0  0  0  0  0  0  0  0  0  0  0
   -3.7477   -8.8511   32.0856 C   0  0  0  0  0  0  0  0  0  0  0  0
   -3.2322  -10.0942   31.6943 C   0  0  0  0  0  0  0  0  0  0  0  0
   -7.1003  -17.3970   33.7185 C   0  0  0  0  0  0  0  0  0  0  0  0
   -8.5895  -17.1924   34.0500 C   0  0  0  0  0  0  0  0  0  0  0  0
   -8.8440  -17.4430   35.3705 C   0  0  0  0  0  0  0  0  0  0  0  0
   -7.6911  -17.9634   35.7843 N   0  0  0  0  0  0  0  0  0  0  0  0
   -6.7932  -18.0795   34.8312 N   0  0  0  0  0  0  0  0  0  0  0  0
   -5.7445  -16.5977   31.0991 H   0  0  0  0  0  0  0  0  0  0  0  0
   -6.7763  -13.7465   30.9301 H   0  0  0  0  0  0  0  0  0  0  0  0
   -6.1591  -14.3055   29.5488 H   0  0  0  0  0  0  0  0  0  0  0  0
   -5.6213  -11.6929   31.2293 H   0  0  0  0  0  0  0  0  0  0  0  0
   -5.1126  -12.1103   29.5359 H   0  0  0  0  0  0  0  0  0  0  0  0
   -2.7670  -12.0919   29.1873 H   0  0  0  0  0  0  0  0  0  0  0  0
   -0.5552  -10.5113   29.9153 H   0  0  0  0  0  0  0  0  0  0  0  0
   -1.4610   -9.6113   33.8036 H   0  0  0  0  0  0  0  0  0  0  0  0
   -2.8727   -6.7662   32.0699 H   0  0  0  0  0  0  0  0  0  0  0  0
   -4.7712   -8.6057   31.9319 H   0  0  0  0  0  0  0  0  0  0  0  0
   -9.2294  -16.4828   33.5356 H   0  0  0  0  0  0  0  0  0  0  0  0
   -9.6844  -17.2170   36.0077 H   0  0  0  0  0  0  0  0  0  0  0  0
   -7.4026  -18.2536   36.7150 H   0  0  0  0  0  0  0  0  0  0  0  0
  1  2  2  0
  2  3  1  0
  3  4  1  0
  4  5  1  0
  5  6  1  0
  6  7  1  0
  7  8  2  0
  8  9  1  0
  9 10  2  0
 10 11  1  0
 11 12  1  0
 11 13  2  0
 13 14  1  0
 14 15  2  0
  2 16  1  0
 16 17  1  0
 17 18  2  0
 18 19  1  0
 19 20  1  0
 15  6  1  0
 20 16  2  0
 15  9  1  0
  3 21  1  0
  4 22  1  0
  4 23  1  0
  5 24  1  0
  5 25  1  0
  7 26  1  0
  8 27  1  0
 10 28  1  0
 13 29  1  0
 14 30  1  0
 17 31  1  0
 18 32  1  0
 19 33  1  0
M  END
>  <Energy>  (1080) 
486.62922137350108

>  <compound_id>  (1080) 
30255

>  <target_id>  (1080) 
1

>  <reference_id>  (1080) 
123

>  <inspiration_ids>  (1080) 
[40, 123]

>  <energy_score>  (1080) 
430.60037744767044

>  <distance_score>  (1080) 
6.853014487842197

>  <path>  (1080) 
/opt/xchem-fragalysis-2/maxwin/BulkDock/SCRATCH/511023/C30255-P123/C30255-P123.minimised.mol

>  <scratch_subdir>  (1080) 
/opt/xchem-fragalysis-2/maxwin/BulkDock/SCRATCH/511023/C30255-P123

>  <fragmenstein_runtime>  (1080) 
16.049611568450928

>  <fragmenstein_outcome>  (1080) 
too moved

>  <fragmenstein_mode>  (1080) 
expansion

>  <fragmenstein_error>  (1080) 


$$$$
C46197-P40
     RDKit          3D

 50 53  0  0  0  0  0  0  0  0999 V2000
    1.1222   -6.4482   29.0550 C   0  0  0  0  0  0  0  0  0  0  0  0
    0.7593   -7.8348   28.9822 O   0  0  0  0  0  0  0  0  0  0  0  0
   -0.0417   -8.3115   30.0018 C   0  0  0  0  0  0  0  0  0  0  0  0
   -0.2426   -7.6315   31.1891 C   0  0  0  0  0  0  0  0  0  0  0  0
   -1.1479   -8.1504   32.0683 C   0  0  0  0  0  0  0  0  0  0  0  0
   -1.8519   -9.3358   31.7517 C   0  0  0  0  0  0  0  0  0  0  0  0
   -1.6579  -10.2535   30.5504 C   0  0  0  0  0  0  0  0  0  0  0  0
   -0.7447   -9.5508   29.7947 C   0  0  0  0  0  0  0  0  0  0  0  0
   -1.0016  -10.3051   28.7535 C   0  0  0  0  0  0  0  0  0  0  0  0
   -2.0835  -11.2697   28.5019 C   0  0  0  0  0  0  0  0  0  0  0  0
   -2.7213  -11.4894   29.6436 N   0  0  0  0  0  0  0  0  0  0  0  0
   -4.4061  -12.3355   29.2776 C   0  0  0  0  0  0  0  0  0  0  0  0
   -5.8627  -13.5753   30.2788 C   0  0  0  0  0  0  0  0  0  0  0  0
   -6.3812  -15.0384   31.3606 N   0  0  0  0  0  0  0  0  0  0  0  0
   -8.0187  -15.4113   32.2779 C   0  0  0  0  0  0  0  0  0  0  0  0
   -8.9660  -14.6470   32.3505 O   0  0  0  0  0  0  0  0  0  0  0  0
   -8.2214  -17.2255   33.1886 C   0  0  0  0  0  0  0  0  0  0  0  0
   -7.4574  -18.5391   33.1103 N   0  0  0  0  0  0  0  0  0  0  0  0
   -7.8015  -19.6857   34.0366 N   0  0  0  0  0  0  0  0  0  0  0  0
   -9.1664  -19.9161   33.8175 C   0  0  0  0  0  0  0  0  0  0  0  0
   -9.4314  -18.2197   33.9014 C   0  0  0  0  0  0  0  0  0  0  0  0
  -10.9079  -18.1524   34.2723 C   0  0  0  0  0  0  0  0  0  0  0  0
  -11.8952  -19.1707   32.9914 C   0  0  0  0  0  0  0  0  0  0  0  0
  -12.1601  -20.5702   31.4651 C   0  0  0  0  0  0  0  0  0  0  0  0
  -10.9251  -21.1998   30.9819 C   0  0  0  0  0  0  0  0  0  0  0  0
   -9.8529  -21.2834   32.4132 C   0  0  0  0  0  0  0  0  0  0  0  0
    1.8842   -6.2628   29.8140 H   0  0  0  0  0  0  0  0  0  0  0  0
    0.2571   -5.8042   29.2414 H   0  0  0  0  0  0  0  0  0  0  0  0
    1.5615   -6.1672   28.0939 H   0  0  0  0  0  0  0  0  0  0  0  0
    0.2610   -6.7072   31.4419 H   0  0  0  0  0  0  0  0  0  0  0  0
   -1.3815   -7.6273   32.9945 H   0  0  0  0  0  0  0  0  0  0  0  0
   -2.6495   -9.4272   32.4614 H   0  0  0  0  0  0  0  0  0  0  0  0
   -0.2279  -10.2918   28.1427 H   0  0  0  0  0  0  0  0  0  0  0  0
   -2.4315  -11.6810   27.5516 H   0  0  0  0  0  0  0  0  0  0  0  0
   -5.1359  -11.5548   29.3685 H   0  0  0  0  0  0  0  0  0  0  0  0
   -4.3745  -12.0902   28.2025 H   0  0  0  0  0  0  0  0  0  0  0  0
   -6.2406  -12.9735   31.1358 H   0  0  0  0  0  0  0  0  0  0  0  0
   -5.0296  -14.2583   30.4234 H   0  0  0  0  0  0  0  0  0  0  0  0
   -5.7240  -15.7938   31.5158 H   0  0  0  0  0  0  0  0  0  0  0  0
   -6.5252  -18.5662   32.7712 H   0  0  0  0  0  0  0  0  0  0  0  0
  -11.0249  -18.6579   35.2489 H   0  0  0  0  0  0  0  0  0  0  0  0
  -11.3112  -17.1560   34.4942 H   0  0  0  0  0  0  0  0  0  0  0  0
  -12.6338  -19.3751   33.8196 H   0  0  0  0  0  0  0  0  0  0  0  0
  -10.8559  -19.3551   32.6588 H   0  0  0  0  0  0  0  0  0  0  0  0
  -12.6592  -20.5517   30.4390 H   0  0  0  0  0  0  0  0  0  0  0  0
  -12.8941  -21.0743   31.9844 H   0  0  0  0  0  0  0  0  0  0  0  0
  -10.6273  -20.8350   30.0082 H   0  0  0  0  0  0  0  0  0  0  0  0
  -11.2924  -22.2045   30.7258 H   0  0  0  0  0  0  0  0  0  0  0  0
  -10.3357  -22.3366   32.5076 H   0  0  0  0  0  0  0  0  0  0  0  0
   -9.0221  -21.8435   32.3343 H   0  0  0  0  0  0  0  0  0  0  0  0
  1  2  1  0
  2  3  1  0
  3  4  2  0
  4  5  1  0
  5  6  2  0
  6  7  1  0
  7  8  2  0
  8  9  1  0
  9 10  2  0
 10 11  1  0
 11 12  1  0
 12 13  1  0
 13 14  1  0
 14 15  1  0
 15 16  2  0
 15 17  1  0
 17 18  1  0
 18 19  1  0
 19 20  2  0
 20 21  1  0
 21 22  1  0
 22 23  1  0
 23 24  1  0
 24 25  1  0
 25 26  1  0
  8  3  1  0
 21 17  2  0
 11  7  1  0
 26 20  1  0
  1 27  1  0
  1 28  1  0
  1 29  1  0
  4 30  1  0
  5 31  1  0
  6 32  1  0
  9 33  1  0
 10 34  1  0
 12 35  1  0
 12 36  1  0
 13 37  1  0
 13 38  1  0
 14 39  1  0
 18 40  1  0
 22 41  1  0
 22 42  1  0
 23 43  1  0
 23 44  1  0
 24 45  1  0
 24 46  1  0
 25 47  1  0
 25 48  1  0
 26 49  1  0
 26 50  1  0
M  END
>  <Energy>  (1081) 
1249.5208090154786

>  <compound_id>  (1081) 
46197

>  <target_id>  (1081) 
1

>  <reference_id>  (1081) 
40

>  <inspiration_ids>  (1081) 
[40, 123]

>  <energy_score>  (1081) 
1191.292386236872

>  <distance_score>  (1081) 
5.711301737396762

>  <path>  (1081) 
/opt/xchem-fragalysis-2/maxwin/BulkDock/SCRATCH/511023/C46197-P40/C46197-P40.minimised.mol

>  <scratch_subdir>  (1081) 
/opt/xchem-fragalysis-2/maxwin/BulkDock/SCRATCH/511023/C46197-P40

>  <fragmenstein_runtime>  (1081) 
31.866663694381714

>  <fragmenstein_outcome>  (1081) 
too moved

>  <fragmenstein_mode>  (1081) 
expansion

>  <fragmenstein_error>  (1081) 


$$$$
C46197-P123
     RDKit          3D

 50 53  0  0  0  0  0  0  0  0999 V2000
   -1.0392   -7.8131   31.4726 C   0  0  0  0  0  0  0  0  0  0  0  0
   -1.4640   -9.1314   31.0788 O   0  0  0  0  0  0  0  0  0  0  0  0
   -2.5748   -9.6913   31.6974 C   0  0  0  0  0  0  0  0  0  0  0  0
   -3.1825   -8.9643   32.6720 C   0  0  0  0  0  0  0  0  0  0  0  0
   -4.4890   -9.2678   32.8814 C   0  0  0  0  0  0  0  0  0  0  0  0
   -5.2006  -10.3629   32.2218 C   0  0  0  0  0  0  0  0  0  0  0  0
   -4.7748  -11.4257   31.2484 C   0  0  0  0  0  0  0  0  0  0  0  0
   -3.2256  -10.9033   31.0327 C   0  0  0  0  0  0  0  0  0  0  0  0
   -2.8896  -11.7270   29.9713 C   0  0  0  0  0  0  0  0  0  0  0  0
   -4.0365  -12.4059   29.5898 C   0  0  0  0  0  0  0  0  0  0  0  0
   -5.0637  -12.6776   30.5131 N   0  0  0  0  0  0  0  0  0  0  0  0
   -6.0938  -14.2445   30.6933 C   0  0  0  0  0  0  0  0  0  0  0  0
   -5.8674  -15.9575   31.8360 C   0  0  0  0  0  0  0  0  0  0  0  0
   -6.7473  -16.9343   32.8035 N   0  0  0  0  0  0  0  0  0  0  0  0
   -6.6776  -18.3634   33.0212 C   0  0  0  0  0  0  0  0  0  0  0  0
   -5.8896  -19.1897   32.5982 O   0  0  0  0  0  0  0  0  0  0  0  0
   -7.8042  -19.0833   33.8920 C   0  0  0  0  0  0  0  0  0  0  0  0
   -7.1769  -19.8460   34.8793 N   0  0  0  0  0  0  0  0  0  0  0  0
   -7.0858  -21.1616   34.6185 N   0  0  0  0  0  0  0  0  0  0  0  0
   -7.9253  -21.4162   33.5892 C   0  0  0  0  0  0  0  0  0  0  0  0
   -8.7010  -20.2055   33.3508 C   0  0  0  0  0  0  0  0  0  0  0  0
  -10.2364  -20.2941   32.6968 C   0  0  0  0  0  0  0  0  0  0  0  0
  -10.9309  -21.4913   31.9323 C   0  0  0  0  0  0  0  0  0  0  0  0
  -11.0192  -22.9237   32.4536 C   0  0  0  0  0  0  0  0  0  0  0  0
   -9.7114  -23.6675   32.7171 C   0  0  0  0  0  0  0  0  0  0  0  0
   -8.3954  -22.9911   33.3155 C   0  0  0  0  0  0  0  0  0  0  0  0
   -1.8454   -7.0855   31.3526 H   0  0  0  0  0  0  0  0  0  0  0  0
   -0.2321   -7.5062   30.8073 H   0  0  0  0  0  0  0  0  0  0  0  0
   -0.6606   -7.8148   32.4980 H   0  0  0  0  0  0  0  0  0  0  0  0
   -2.6820   -8.2082   33.2577 H   0  0  0  0  0  0  0  0  0  0  0  0
   -4.9608   -8.8653   33.7697 H   0  0  0  0  0  0  0  0  0  0  0  0
   -6.0193  -10.6493   32.8061 H   0  0  0  0  0  0  0  0  0  0  0  0
   -2.0871  -11.3235   29.4057 H   0  0  0  0  0  0  0  0  0  0  0  0
   -4.3673  -12.2177   28.5961 H   0  0  0  0  0  0  0  0  0  0  0  0
   -6.1543  -14.4405   29.6378 H   0  0  0  0  0  0  0  0  0  0  0  0
   -6.9722  -13.7667   31.0830 H   0  0  0  0  0  0  0  0  0  0  0  0
   -5.7002  -16.6026   30.9729 H   0  0  0  0  0  0  0  0  0  0  0  0
   -5.0185  -16.1482   32.5294 H   0  0  0  0  0  0  0  0  0  0  0  0
   -7.4892  -16.5491   33.3822 H   0  0  0  0  0  0  0  0  0  0  0  0
   -6.5202  -19.4849   35.5549 H   0  0  0  0  0  0  0  0  0  0  0  0
  -10.9871  -19.8360   33.3491 H   0  0  0  0  0  0  0  0  0  0  0  0
  -10.1414  -19.6704   31.9057 H   0  0  0  0  0  0  0  0  0  0  0  0
  -10.6242  -21.4901   30.8858 H   0  0  0  0  0  0  0  0  0  0  0  0
  -11.9844  -21.2006   31.8589 H   0  0  0  0  0  0  0  0  0  0  0  0
  -11.5940  -23.5119   31.7245 H   0  0  0  0  0  0  0  0  0  0  0  0
  -11.6458  -22.9436   33.3553 H   0  0  0  0  0  0  0  0  0  0  0  0
   -9.4369  -24.1827   31.7859 H   0  0  0  0  0  0  0  0  0  0  0  0
   -9.9488  -24.5426   33.3391 H   0  0  0  0  0  0  0  0  0  0  0  0
   -8.2138  -23.4111   34.2895 H   0  0  0  0  0  0  0  0  0  0  0  0
   -7.6794  -23.4257   32.6552 H   0  0  0  0  0  0  0  0  0  0  0  0
  1  2  1  0
  2  3  1  0
  3  4  2  0
  4  5  1  0
  5  6  2  0
  6  7  1  0
  7  8  2  0
  8  9  1  0
  9 10  2  0
 10 11  1  0
 11 12  1  0
 12 13  1  0
 13 14  1  0
 14 15  1  0
 15 16  2  0
 15 17  1  0
 17 18  1  0
 18 19  1  0
 19 20  2  0
 20 21  1  0
 21 22  1  0
 22 23  1  0
 23 24  1  0
 24 25  1  0
 25 26  1  0
  8  3  1  0
 21 17  2  0
 11  7  1  0
 26 20  1  0
  1 27  1  0
  1 28  1  0
  1 29  1  0
  4 30  1  0
  5 31  1  0
  6 32  1  0
  9 33  1  0
 10 34  1  0
 12 35  1  0
 12 36  1  0
 13 37  1  0
 13 38  1  0
 14 39  1  0
 18 40  1  0
 22 41  1  0
 22 42  1  0
 23 43  1  0
 23 44  1  0
 24 45  1  0
 24 46  1  0
 25 47  1  0
 25 48  1  0
 26 49  1  0
 26 50  1  0
M  END
>  <Energy>  (1082) 
466.7014665707523

>  <compound_id>  (1082) 
46197

>  <target_id>  (1082) 
1

>  <reference_id>  (1082) 
123

>  <inspiration_ids>  (1082) 
[40, 123]

>  <energy_score>  (1082) 
408.4730437921536

>  <distance_score>  (1082) 
6.254032235879331

>  <path>  (1082) 
/opt/xchem-fragalysis-2/maxwin/BulkDock/SCRATCH/511023/C46197-P123/C46197-P123.minimised.mol

>  <scratch_subdir>  (1082) 
/opt/xchem-fragalysis-2/maxwin/BulkDock/SCRATCH/511023/C46197-P123

>  <fragmenstein_runtime>  (1082) 
23.95086669921875

>  <fragmenstein_outcome>  (1082) 
too moved

>  <fragmenstein_mode>  (1082) 
expansion

>  <fragmenstein_error>  (1082) 


$$$$
C46198-P40
     RDKit          3D

 44 47  0  0  0  0  0  0  0  0999 V2000
    0.7107   -5.7053   30.1109 C   0  0  0  0  0  0  0  0  0  0  0  0
    0.5202   -7.1039   29.8976 O   0  0  0  0  0  0  0  0  0  0  0  0
   -0.3073   -7.7372   30.7923 C   0  0  0  0  0  0  0  0  0  0  0  0
   -0.6255   -7.2675   32.0376 C   0  0  0  0  0  0  0  0  0  0  0  0
   -1.6465   -7.8982   32.6939 C   0  0  0  0  0  0  0  0  0  0  0  0
   -2.3925   -8.9437   32.0836 C   0  0  0  0  0  0  0  0  0  0  0  0
   -1.8784   -9.8207   31.0452 C   0  0  0  0  0  0  0  0  0  0  0  0
   -0.8160   -9.0100   30.4267 C   0  0  0  0  0  0  0  0  0  0  0  0
   -0.5855   -9.8239   29.3848 C   0  0  0  0  0  0  0  0  0  0  0  0
   -1.0330  -10.9350   30.0985 C   0  0  0  0  0  0  0  0  0  0  0  0
   -2.4327  -11.1572   29.8081 N   0  0  0  0  0  0  0  0  0  0  0  0
   -3.8090  -12.5996   29.4892 C   0  0  0  0  0  0  0  0  0  0  0  0
   -4.8611  -14.3385   30.5451 C   0  0  0  0  0  0  0  0  0  0  0  0
   -6.4468  -15.1081   31.6277 N   0  0  0  0  0  0  0  0  0  0  0  0
   -6.7794  -16.9116   32.5336 C   0  0  0  0  0  0  0  0  0  0  0  0
   -5.9162  -17.6796   32.5480 O   0  0  0  0  0  0  0  0  0  0  0  0
   -8.3044  -17.6624   33.5427 C   0  0  0  0  0  0  0  0  0  0  0  0
   -8.3823  -18.7405   34.8170 N   0  0  0  0  0  0  0  0  0  0  0  0
   -7.9998  -20.0774   34.5410 N   0  0  0  0  0  0  0  0  0  0  0  0
   -9.1169  -20.3494   33.8605 C   0  0  0  0  0  0  0  0  0  0  0  0
   -9.4768  -18.9281   33.4895 C   0  0  0  0  0  0  0  0  0  0  0  0
  -10.5931  -19.5450   32.5234 C   0  0  0  0  0  0  0  0  0  0  0  0
  -10.6998  -20.9578   31.2489 C   0  0  0  0  0  0  0  0  0  0  0  0
   -9.7435  -21.5915   32.3640 C   0  0  0  0  0  0  0  0  0  0  0  0
    1.3539   -5.5291   30.9788 H   0  0  0  0  0  0  0  0  0  0  0  0
    1.2213   -5.3029   29.2308 H   0  0  0  0  0  0  0  0  0  0  0  0
   -0.2440   -5.1794   30.2136 H   0  0  0  0  0  0  0  0  0  0  0  0
   -0.1710   -6.3895   32.4790 H   0  0  0  0  0  0  0  0  0  0  0  0
   -1.9780   -7.4798   33.6416 H   0  0  0  0  0  0  0  0  0  0  0  0
   -3.4176   -8.9109   32.3922 H   0  0  0  0  0  0  0  0  0  0  0  0
    0.3023   -9.4903   28.9119 H   0  0  0  0  0  0  0  0  0  0  0  0
   -0.4540  -11.6743   30.6172 H   0  0  0  0  0  0  0  0  0  0  0  0
   -2.8241  -12.9726   29.1527 H   0  0  0  0  0  0  0  0  0  0  0  0
   -4.4185  -12.0052   28.8329 H   0  0  0  0  0  0  0  0  0  0  0  0
   -4.2299  -15.2380   30.5468 H   0  0  0  0  0  0  0  0  0  0  0  0
   -5.7530  -14.1799   29.9030 H   0  0  0  0  0  0  0  0  0  0  0  0
   -7.3124  -14.5709   31.6153 H   0  0  0  0  0  0  0  0  0  0  0  0
   -8.4040  -18.4116   35.7784 H   0  0  0  0  0  0  0  0  0  0  0  0
  -11.5928  -19.1851   32.8817 H   0  0  0  0  0  0  0  0  0  0  0  0
  -10.4102  -19.3817   31.6088 H   0  0  0  0  0  0  0  0  0  0  0  0
  -10.5412  -20.8321   30.1736 H   0  0  0  0  0  0  0  0  0  0  0  0
  -11.7326  -21.3658   31.1221 H   0  0  0  0  0  0  0  0  0  0  0  0
   -9.2341  -22.5611   32.4485 H   0  0  0  0  0  0  0  0  0  0  0  0
  -10.5468  -22.4243   32.4557 H   0  0  0  0  0  0  0  0  0  0  0  0
  1  2  1  0
  2  3  1  0
  3  4  2  0
  4  5  1  0
  5  6  2  0
  6  7  1  0
  7  8  2  0
  8  9  1  0
  9 10  2  0
 10 11  1  0
 11 12  1  0
 12 13  1  0
 13 14  1  0
 14 15  1  0
 15 16  2  0
 15 17  1  0
 17 18  1  0
 18 19  1  0
 19 20  2  0
 20 21  1  0
 21 22  1  0
 22 23  1  0
 23 24  1  0
  8  3  1  0
 21 17  2  0
 11  7  1  0
 24 20  1  0
  1 25  1  0
  1 26  1  0
  1 27  1  0
  4 28  1  0
  5 29  1  0
  6 30  1  0
  9 31  1  0
 10 32  1  0
 12 33  1  0
 12 34  1  0
 13 35  1  0
 13 36  1  0
 14 37  1  0
 18 38  1  0
 22 39  1  0
 22 40  1  0
 23 41  1  0
 23 42  1  0
 24 43  1  0
 24 44  1  0
M  END
>  <Energy>  (1083) 
1464.2178019252315

>  <compound_id>  (1083) 
46198

>  <target_id>  (1083) 
1

>  <reference_id>  (1083) 
40

>  <inspiration_ids>  (1083) 
[40, 123]

>  <energy_score>  (1083) 
1414.9159817727118

>  <distance_score>  (1083) 
5.182347673682934

>  <path>  (1083) 
/opt/xchem-fragalysis-2/maxwin/BulkDock/SCRATCH/511023/C46198-P40/C46198-P40.minimised.mol

>  <scratch_subdir>  (1083) 
/opt/xchem-fragalysis-2/maxwin/BulkDock/SCRATCH/511023/C46198-P40

>  <fragmenstein_runtime>  (1083) 
17.74809694290161

>  <fragmenstein_outcome>  (1083) 
too moved

>  <fragmenstein_mode>  (1083) 
expansion

>  <fragmenstein_error>  (1083) 


$$$$
C46198-P123
     RDKit          3D

 44 47  0  0  0  0  0  0  0  0999 V2000
   -1.0445   -7.8400   31.4814 C   0  0  0  0  0  0  0  0  0  0  0  0
   -1.4729   -9.1545   31.0720 O   0  0  0  0  0  0  0  0  0  0  0  0
   -2.5884   -9.7116   31.6892 C   0  0  0  0  0  0  0  0  0  0  0  0
   -3.1945   -8.9778   32.6619 C   0  0  0  0  0  0  0  0  0  0  0  0
   -4.5015   -9.2746   32.8743 C   0  0  0  0  0  0  0  0  0  0  0  0
   -5.2124  -10.3742   32.2177 C   0  0  0  0  0  0  0  0  0  0  0  0
   -4.7987  -11.4418   31.2419 C   0  0  0  0  0  0  0  0  0  0  0  0
   -3.2468  -10.9273   31.0216 C   0  0  0  0  0  0  0  0  0  0  0  0
   -2.9188  -11.7543   29.9620 C   0  0  0  0  0  0  0  0  0  0  0  0
   -4.0715  -12.4245   29.5900 C   0  0  0  0  0  0  0  0  0  0  0  0
   -5.0891  -12.7118   30.5190 N   0  0  0  0  0  0  0  0  0  0  0  0
   -6.0872  -14.3091   30.7229 C   0  0  0  0  0  0  0  0  0  0  0  0
   -5.8492  -16.0086   31.9120 C   0  0  0  0  0  0  0  0  0  0  0  0
   -6.9433  -16.7962   32.8914 N   0  0  0  0  0  0  0  0  0  0  0  0
   -7.4059  -16.5047   34.1846 C   0  0  0  0  0  0  0  0  0  0  0  0
   -7.0743  -15.6645   34.9544 O   0  0  0  0  0  0  0  0  0  0  0  0
   -8.5756  -17.2944   34.6489 C   0  0  0  0  0  0  0  0  0  0  0  0
   -9.0991  -16.8749   35.8718 N   0  0  0  0  0  0  0  0  0  0  0  0
  -10.4230  -17.0629   36.0921 N   0  0  0  0  0  0  0  0  0  0  0  0
  -10.8114  -17.6578   34.9732 C   0  0  0  0  0  0  0  0  0  0  0  0
   -9.6833  -17.9270   34.0662 C   0  0  0  0  0  0  0  0  0  0  0  0
  -10.0943  -19.3566   33.1951 C   0  0  0  0  0  0  0  0  0  0  0  0
  -11.6332  -19.6962   33.8344 C   0  0  0  0  0  0  0  0  0  0  0  0
  -12.0772  -18.4865   34.7512 C   0  0  0  0  0  0  0  0  0  0  0  0
   -0.6732   -7.8516   32.5096 H   0  0  0  0  0  0  0  0  0  0  0  0
   -0.2303   -7.5329   30.8251 H   0  0  0  0  0  0  0  0  0  0  0  0
   -1.8455   -7.1068   31.3590 H   0  0  0  0  0  0  0  0  0  0  0  0
   -2.6967   -8.2219   33.2506 H   0  0  0  0  0  0  0  0  0  0  0  0
   -4.9727   -8.8597   33.7621 H   0  0  0  0  0  0  0  0  0  0  0  0
   -6.0252  -10.6514   32.8122 H   0  0  0  0  0  0  0  0  0  0  0  0
   -2.1211  -11.3495   29.3942 H   0  0  0  0  0  0  0  0  0  0  0  0
   -4.4154  -12.2169   28.6050 H   0  0  0  0  0  0  0  0  0  0  0  0
   -6.9884  -13.8311   31.0653 H   0  0  0  0  0  0  0  0  0  0  0  0
   -6.1010  -14.5387   29.6744 H   0  0  0  0  0  0  0  0  0  0  0  0
   -5.0089  -16.1971   32.5884 H   0  0  0  0  0  0  0  0  0  0  0  0
   -5.7476  -16.7001   31.0867 H   0  0  0  0  0  0  0  0  0  0  0  0
   -7.3971  -17.6387   32.5626 H   0  0  0  0  0  0  0  0  0  0  0  0
   -8.5825  -16.2927   36.5186 H   0  0  0  0  0  0  0  0  0  0  0  0
  -10.1948  -19.6501   32.1767 H   0  0  0  0  0  0  0  0  0  0  0  0
   -9.2134  -19.9921   33.3582 H   0  0  0  0  0  0  0  0  0  0  0  0
  -12.2400  -20.1365   33.0640 H   0  0  0  0  0  0  0  0  0  0  0  0
  -11.7650  -20.5728   34.4707 H   0  0  0  0  0  0  0  0  0  0  0  0
  -12.4531  -18.8598   35.7105 H   0  0  0  0  0  0  0  0  0  0  0  0
  -12.8765  -17.8908   34.3022 H   0  0  0  0  0  0  0  0  0  0  0  0
  1  2  1  0
  2  3  1  0
  3  4  2  0
  4  5  1  0
  5  6  2  0
  6  7  1  0
  7  8  2  0
  8  9  1  0
  9 10  2  0
 10 11  1  0
 11 12  1  0
 12 13  1  0
 13 14  1  0
 14 15  1  0
 15 16  2  0
 15 17  1  0
 17 18  1  0
 18 19  1  0
 19 20  2  0
 20 21  1  0
 21 22  1  0
 22 23  1  0
 23 24  1  0
  8  3  1  0
 21 17  2  0
 11  7  1  0
 24 20  1  0
  1 25  1  0
  1 26  1  0
  1 27  1  0
  4 28  1  0
  5 29  1  0
  6 30  1  0
  9 31  1  0
 10 32  1  0
 12 33  1  0
 12 34  1  0
 13 35  1  0
 13 36  1  0
 14 37  1  0
 18 38  1  0
 22 39  1  0
 22 40  1  0
 23 41  1  0
 23 42  1  0
 24 43  1  0
 24 44  1  0
M  END
>  <Energy>  (1084) 
411.30742770021436

>  <compound_id>  (1084) 
46198

>  <target_id>  (1084) 
1

>  <reference_id>  (1084) 
123

>  <inspiration_ids>  (1084) 
[40, 123]

>  <energy_score>  (1084) 
362.00560754770567

>  <distance_score>  (1084) 
7.384976400487618

>  <path>  (1084) 
/opt/xchem-fragalysis-2/maxwin/BulkDock/SCRATCH/511023/C46198-P123/C46198-P123.minimised.mol

>  <scratch_subdir>  (1084) 
/opt/xchem-fragalysis-2/maxwin/BulkDock/SCRATCH/511023/C46198-P123

>  <fragmenstein_runtime>  (1084) 
23.88149881362915

>  <fragmenstein_outcome>  (1084) 
too moved

>  <fragmenstein_mode>  (1084) 
expansion

>  <fragmenstein_error>  (1084) 


$$$$
C46197-P40
     RDKit          3D

 50 53  0  0  0  0  0  0  0  0999 V2000
    1.1222   -6.4482   29.0550 C   0  0  0  0  0  0  0  0  0  0  0  0
    0.7593   -7.8348   28.9822 O   0  0  0  0  0  0  0  0  0  0  0  0
   -0.0417   -8.3115   30.0018 C   0  0  0  0  0  0  0  0  0  0  0  0
   -0.2426   -7.6315   31.1891 C   0  0  0  0  0  0  0  0  0  0  0  0
   -1.1479   -8.1504   32.0683 C   0  0  0  0  0  0  0  0  0  0  0  0
   -1.8519   -9.3358   31.7517 C   0  0  0  0  0  0  0  0  0  0  0  0
   -1.6579  -10.2535   30.5504 C   0  0  0  0  0  0  0  0  0  0  0  0
   -0.7447   -9.5508   29.7947 C   0  0  0  0  0  0  0  0  0  0  0  0
   -1.0016  -10.3051   28.7535 C   0  0  0  0  0  0  0  0  0  0  0  0
   -2.0835  -11.2697   28.5019 C   0  0  0  0  0  0  0  0  0  0  0  0
   -2.7213  -11.4894   29.6436 N   0  0  0  0  0  0  0  0  0  0  0  0
   -4.4061  -12.3355   29.2776 C   0  0  0  0  0  0  0  0  0  0  0  0
   -5.8627  -13.5753   30.2788 C   0  0  0  0  0  0  0  0  0  0  0  0
   -6.3812  -15.0384   31.3606 N   0  0  0  0  0  0  0  0  0  0  0  0
   -8.0187  -15.4113   32.2779 C   0  0  0  0  0  0  0  0  0  0  0  0
   -8.9660  -14.6470   32.3505 O   0  0  0  0  0  0  0  0  0  0  0  0
   -8.2214  -17.2255   33.1886 C   0  0  0  0  0  0  0  0  0  0  0  0
   -7.4574  -18.5391   33.1103 N   0  0  0  0  0  0  0  0  0  0  0  0
   -7.8015  -19.6857   34.0366 N   0  0  0  0  0  0  0  0  0  0  0  0
   -9.1664  -19.9161   33.8175 C   0  0  0  0  0  0  0  0  0  0  0  0
   -9.4314  -18.2197   33.9014 C   0  0  0  0  0  0  0  0  0  0  0  0
  -10.9079  -18.1524   34.2723 C   0  0  0  0  0  0  0  0  0  0  0  0
  -11.8952  -19.1707   32.9914 C   0  0  0  0  0  0  0  0  0  0  0  0
  -12.1601  -20.5702   31.4651 C   0  0  0  0  0  0  0  0  0  0  0  0
  -10.9251  -21.1998   30.9819 C   0  0  0  0  0  0  0  0  0  0  0  0
   -9.8529  -21.2834   32.4132 C   0  0  0  0  0  0  0  0  0  0  0  0
    1.8842   -6.2628   29.8140 H   0  0  0  0  0  0  0  0  0  0  0  0
    0.2571   -5.8042   29.2414 H   0  0  0  0  0  0  0  0  0  0  0  0
    1.5615   -6.1672   28.0939 H   0  0  0  0  0  0  0  0  0  0  0  0
    0.2610   -6.7072   31.4419 H   0  0  0  0  0  0  0  0  0  0  0  0
   -1.3815   -7.6273   32.9945 H   0  0  0  0  0  0  0  0  0  0  0  0
   -2.6495   -9.4272   32.4614 H   0  0  0  0  0  0  0  0  0  0  0  0
   -0.2279  -10.2918   28.1427 H   0  0  0  0  0  0  0  0  0  0  0  0
   -2.4315  -11.6810   27.5516 H   0  0  0  0  0  0  0  0  0  0  0  0
   -5.1359  -11.5548   29.3685 H   0  0  0  0  0  0  0  0  0  0  0  0
   -4.3745  -12.0902   28.2025 H   0  0  0  0  0  0  0  0  0  0  0  0
   -6.2406  -12.9735   31.1358 H   0  0  0  0  0  0  0  0  0  0  0  0
   -5.0296  -14.2583   30.4234 H   0  0  0  0  0  0  0  0  0  0  0  0
   -5.7240  -15.7938   31.5158 H   0  0  0  0  0  0  0  0  0  0  0  0
   -6.5252  -18.5662   32.7712 H   0  0  0  0  0  0  0  0  0  0  0  0
  -11.0249  -18.6579   35.2489 H   0  0  0  0  0  0  0  0  0  0  0  0
  -11.3112  -17.1560   34.4942 H   0  0  0  0  0  0  0  0  0  0  0  0
  -12.6338  -19.3751   33.8196 H   0  0  0  0  0  0  0  0  0  0  0  0
  -10.8559  -19.3551   32.6588 H   0  0  0  0  0  0  0  0  0  0  0  0
  -12.6592  -20.5517   30.4390 H   0  0  0  0  0  0  0  0  0  0  0  0
  -12.8941  -21.0743   31.9844 H   0  0  0  0  0  0  0  0  0  0  0  0
  -10.6273  -20.8350   30.0082 H   0  0  0  0  0  0  0  0  0  0  0  0
  -11.2924  -22.2045   30.7258 H   0  0  0  0  0  0  0  0  0  0  0  0
  -10.3357  -22.3366   32.5076 H   0  0  0  0  0  0  0  0  0  0  0  0
   -9.0221  -21.8435   32.3343 H   0  0  0  0  0  0  0  0  0  0  0  0
  1  2  1  0
  2  3  1  0
  3  4  2  0
  4  5  1  0
  5  6  2  0
  6  7  1  0
  7  8  2  0
  8  9  1  0
  9 10  2  0
 10 11  1  0
 11 12  1  0
 12 13  1  0
 13 14  1  0
 14 15  1  0
 15 16  2  0
 15 17  1  0
 17 18  1  0
 18 19  1  0
 19 20  2  0
 20 21  1  0
 21 22  1  0
 22 23  1  0
 23 24  1  0
 24 25  1  0
 25 26  1  0
  8  3  1  0
 21 17  2  0
 11  7  1  0
 26 20  1  0
  1 27  1  0
  1 28  1  0
  1 29  1  0
  4 30  1  0
  5 31  1  0
  6 32  1  0
  9 33  1  0
 10 34  1  0
 12 35  1  0
 12 36  1  0
 13 37  1  0
 13 38  1  0
 14 39  1  0
 18 40  1  0
 22 41  1  0
 22 42  1  0
 23 43  1  0
 23 44  1  0
 24 45  1  0
 24 46  1  0
 25 47  1  0
 25 48  1  0
 26 49  1  0
 26 50  1  0
M  END
>  <Energy>  (1085) 
1249.5208090154786

>  <compound_id>  (1085) 
46197

>  <target_id>  (1085) 
1

>  <reference_id>  (1085) 
40

>  <inspiration_ids>  (1085) 
[40, 123]

>  <energy_score>  (1085) 
1191.292386236872

>  <distance_score>  (1085) 
5.711301737396762

>  <path>  (1085) 
/opt/xchem-fragalysis-2/maxwin/BulkDock/SCRATCH/511023/C46197-P40/C46197-P40.minimised.mol

>  <scratch_subdir>  (1085) 
/opt/xchem-fragalysis-2/maxwin/BulkDock/SCRATCH/511023/C46197-P40

>  <fragmenstein_runtime>  (1085) 
28.580700159072876

>  <fragmenstein_outcome>  (1085) 
too moved

>  <fragmenstein_mode>  (1085) 
expansion

>  <fragmenstein_error>  (1085) 


$$$$
C46197-P123
     RDKit          3D

 50 53  0  0  0  0  0  0  0  0999 V2000
   -1.0392   -7.8131   31.4726 C   0  0  0  0  0  0  0  0  0  0  0  0
   -1.4640   -9.1314   31.0788 O   0  0  0  0  0  0  0  0  0  0  0  0
   -2.5748   -9.6913   31.6974 C   0  0  0  0  0  0  0  0  0  0  0  0
   -3.1825   -8.9643   32.6720 C   0  0  0  0  0  0  0  0  0  0  0  0
   -4.4890   -9.2678   32.8814 C   0  0  0  0  0  0  0  0  0  0  0  0
   -5.2006  -10.3629   32.2218 C   0  0  0  0  0  0  0  0  0  0  0  0
   -4.7748  -11.4257   31.2484 C   0  0  0  0  0  0  0  0  0  0  0  0
   -3.2256  -10.9033   31.0327 C   0  0  0  0  0  0  0  0  0  0  0  0
   -2.8896  -11.7270   29.9713 C   0  0  0  0  0  0  0  0  0  0  0  0
   -4.0365  -12.4059   29.5898 C   0  0  0  0  0  0  0  0  0  0  0  0
   -5.0637  -12.6776   30.5131 N   0  0  0  0  0  0  0  0  0  0  0  0
   -6.0938  -14.2445   30.6933 C   0  0  0  0  0  0  0  0  0  0  0  0
   -5.8674  -15.9575   31.8360 C   0  0  0  0  0  0  0  0  0  0  0  0
   -6.7473  -16.9343   32.8035 N   0  0  0  0  0  0  0  0  0  0  0  0
   -6.6776  -18.3634   33.0212 C   0  0  0  0  0  0  0  0  0  0  0  0
   -5.8896  -19.1897   32.5982 O   0  0  0  0  0  0  0  0  0  0  0  0
   -7.8042  -19.0833   33.8920 C   0  0  0  0  0  0  0  0  0  0  0  0
   -7.1769  -19.8460   34.8793 N   0  0  0  0  0  0  0  0  0  0  0  0
   -7.0858  -21.1616   34.6185 N   0  0  0  0  0  0  0  0  0  0  0  0
   -7.9253  -21.4162   33.5892 C   0  0  0  0  0  0  0  0  0  0  0  0
   -8.7010  -20.2055   33.3508 C   0  0  0  0  0  0  0  0  0  0  0  0
  -10.2364  -20.2941   32.6968 C   0  0  0  0  0  0  0  0  0  0  0  0
  -10.9309  -21.4913   31.9323 C   0  0  0  0  0  0  0  0  0  0  0  0
  -11.0192  -22.9237   32.4536 C   0  0  0  0  0  0  0  0  0  0  0  0
   -9.7114  -23.6675   32.7171 C   0  0  0  0  0  0  0  0  0  0  0  0
   -8.3954  -22.9911   33.3155 C   0  0  0  0  0  0  0  0  0  0  0  0
   -1.8454   -7.0855   31.3526 H   0  0  0  0  0  0  0  0  0  0  0  0
   -0.2321   -7.5062   30.8073 H   0  0  0  0  0  0  0  0  0  0  0  0
   -0.6606   -7.8148   32.4980 H   0  0  0  0  0  0  0  0  0  0  0  0
   -2.6820   -8.2082   33.2577 H   0  0  0  0  0  0  0  0  0  0  0  0
   -4.9608   -8.8653   33.7697 H   0  0  0  0  0  0  0  0  0  0  0  0
   -6.0193  -10.6493   32.8061 H   0  0  0  0  0  0  0  0  0  0  0  0
   -2.0871  -11.3235   29.4057 H   0  0  0  0  0  0  0  0  0  0  0  0
   -4.3673  -12.2177   28.5961 H   0  0  0  0  0  0  0  0  0  0  0  0
   -6.1543  -14.4405   29.6378 H   0  0  0  0  0  0  0  0  0  0  0  0
   -6.9722  -13.7667   31.0830 H   0  0  0  0  0  0  0  0  0  0  0  0
   -5.7002  -16.6026   30.9729 H   0  0  0  0  0  0  0  0  0  0  0  0
   -5.0185  -16.1482   32.5294 H   0  0  0  0  0  0  0  0  0  0  0  0
   -7.4892  -16.5491   33.3822 H   0  0  0  0  0  0  0  0  0  0  0  0
   -6.5202  -19.4849   35.5549 H   0  0  0  0  0  0  0  0  0  0  0  0
  -10.9871  -19.8360   33.3491 H   0  0  0  0  0  0  0  0  0  0  0  0
  -10.1414  -19.6704   31.9057 H   0  0  0  0  0  0  0  0  0  0  0  0
  -10.6242  -21.4901   30.8858 H   0  0  0  0  0  0  0  0  0  0  0  0
  -11.9844  -21.2006   31.8589 H   0  0  0  0  0  0  0  0  0  0  0  0
  -11.5940  -23.5119   31.7245 H   0  0  0  0  0  0  0  0  0  0  0  0
  -11.6458  -22.9436   33.3553 H   0  0  0  0  0  0  0  0  0  0  0  0
   -9.4369  -24.1827   31.7859 H   0  0  0  0  0  0  0  0  0  0  0  0
   -9.9488  -24.5426   33.3391 H   0  0  0  0  0  0  0  0  0  0  0  0
   -8.2138  -23.4111   34.2895 H   0  0  0  0  0  0  0  0  0  0  0  0
   -7.6794  -23.4257   32.6552 H   0  0  0  0  0  0  0  0  0  0  0  0
  1  2  1  0
  2  3  1  0
  3  4  2  0
  4  5  1  0
  5  6  2  0
  6  7  1  0
  7  8  2  0
  8  9  1  0
  9 10  2  0
 10 11  1  0
 11 12  1  0
 12 13  1  0
 13 14  1  0
 14 15  1  0
 15 16  2  0
 15 17  1  0
 17 18  1  0
 18 19  1  0
 19 20  2  0
 20 21  1  0
 21 22  1  0
 22 23  1  0
 23 24  1  0
 24 25  1  0
 25 26  1  0
  8  3  1  0
 21 17  2  0
 11  7  1  0
 26 20  1  0
  1 27  1  0
  1 28  1  0
  1 29  1  0
  4 30  1  0
  5 31  1  0
  6 32  1  0
  9 33  1  0
 10 34  1  0
 12 35  1  0
 12 36  1  0
 13 37  1  0
 13 38  1  0
 14 39  1  0
 18 40  1  0
 22 41  1  0
 22 42  1  0
 23 43  1  0
 23 44  1  0
 24 45  1  0
 24 46  1  0
 25 47  1  0
 25 48  1  0
 26 49  1  0
 26 50  1  0
M  END
>  <Energy>  (1086) 
466.7014665707523

>  <compound_id>  (1086) 
46197

>  <target_id>  (1086) 
1

>  <reference_id>  (1086) 
123

>  <inspiration_ids>  (1086) 
[40, 123]

>  <energy_score>  (1086) 
408.4730437921536

>  <distance_score>  (1086) 
6.254032235879331

>  <path>  (1086) 
/opt/xchem-fragalysis-2/maxwin/BulkDock/SCRATCH/511023/C46197-P123/C46197-P123.minimised.mol

>  <scratch_subdir>  (1086) 
/opt/xchem-fragalysis-2/maxwin/BulkDock/SCRATCH/511023/C46197-P123

>  <fragmenstein_runtime>  (1086) 
22.13108777999878

>  <fragmenstein_outcome>  (1086) 
too moved

>  <fragmenstein_mode>  (1086) 
expansion

>  <fragmenstein_error>  (1086) 


$$$$
C46198-P40
     RDKit          3D

 44 47  0  0  0  0  0  0  0  0999 V2000
    0.7107   -5.7053   30.1109 C   0  0  0  0  0  0  0  0  0  0  0  0
    0.5202   -7.1039   29.8976 O   0  0  0  0  0  0  0  0  0  0  0  0
   -0.3073   -7.7372   30.7923 C   0  0  0  0  0  0  0  0  0  0  0  0
   -0.6255   -7.2675   32.0376 C   0  0  0  0  0  0  0  0  0  0  0  0
   -1.6465   -7.8982   32.6939 C   0  0  0  0  0  0  0  0  0  0  0  0
   -2.3925   -8.9437   32.0836 C   0  0  0  0  0  0  0  0  0  0  0  0
   -1.8784   -9.8207   31.0452 C   0  0  0  0  0  0  0  0  0  0  0  0
   -0.8160   -9.0100   30.4267 C   0  0  0  0  0  0  0  0  0  0  0  0
   -0.5855   -9.8239   29.3848 C   0  0  0  0  0  0  0  0  0  0  0  0
   -1.0330  -10.9350   30.0985 C   0  0  0  0  0  0  0  0  0  0  0  0
   -2.4327  -11.1572   29.8081 N   0  0  0  0  0  0  0  0  0  0  0  0
   -3.8090  -12.5996   29.4892 C   0  0  0  0  0  0  0  0  0  0  0  0
   -4.8611  -14.3385   30.5451 C   0  0  0  0  0  0  0  0  0  0  0  0
   -6.4468  -15.1081   31.6277 N   0  0  0  0  0  0  0  0  0  0  0  0
   -6.7794  -16.9116   32.5336 C   0  0  0  0  0  0  0  0  0  0  0  0
   -5.9162  -17.6796   32.5480 O   0  0  0  0  0  0  0  0  0  0  0  0
   -8.3044  -17.6624   33.5427 C   0  0  0  0  0  0  0  0  0  0  0  0
   -8.3823  -18.7405   34.8170 N   0  0  0  0  0  0  0  0  0  0  0  0
   -7.9998  -20.0774   34.5410 N   0  0  0  0  0  0  0  0  0  0  0  0
   -9.1169  -20.3494   33.8605 C   0  0  0  0  0  0  0  0  0  0  0  0
   -9.4768  -18.9281   33.4895 C   0  0  0  0  0  0  0  0  0  0  0  0
  -10.5931  -19.5450   32.5234 C   0  0  0  0  0  0  0  0  0  0  0  0
  -10.6998  -20.9578   31.2489 C   0  0  0  0  0  0  0  0  0  0  0  0
   -9.7435  -21.5915   32.3640 C   0  0  0  0  0  0  0  0  0  0  0  0
    1.3539   -5.5291   30.9788 H   0  0  0  0  0  0  0  0  0  0  0  0
    1.2213   -5.3029   29.2308 H   0  0  0  0  0  0  0  0  0  0  0  0
   -0.2440   -5.1794   30.2136 H   0  0  0  0  0  0  0  0  0  0  0  0
   -0.1710   -6.3895   32.4790 H   0  0  0  0  0  0  0  0  0  0  0  0
   -1.9780   -7.4798   33.6416 H   0  0  0  0  0  0  0  0  0  0  0  0
   -3.4176   -8.9109   32.3922 H   0  0  0  0  0  0  0  0  0  0  0  0
    0.3023   -9.4903   28.9119 H   0  0  0  0  0  0  0  0  0  0  0  0
   -0.4540  -11.6743   30.6172 H   0  0  0  0  0  0  0  0  0  0  0  0
   -2.8241  -12.9726   29.1527 H   0  0  0  0  0  0  0  0  0  0  0  0
   -4.4185  -12.0052   28.8329 H   0  0  0  0  0  0  0  0  0  0  0  0
   -4.2299  -15.2380   30.5468 H   0  0  0  0  0  0  0  0  0  0  0  0
   -5.7530  -14.1799   29.9030 H   0  0  0  0  0  0  0  0  0  0  0  0
   -7.3124  -14.5709   31.6153 H   0  0  0  0  0  0  0  0  0  0  0  0
   -8.4040  -18.4116   35.7784 H   0  0  0  0  0  0  0  0  0  0  0  0
  -11.5928  -19.1851   32.8817 H   0  0  0  0  0  0  0  0  0  0  0  0
  -10.4102  -19.3817   31.6088 H   0  0  0  0  0  0  0  0  0  0  0  0
  -10.5412  -20.8321   30.1736 H   0  0  0  0  0  0  0  0  0  0  0  0
  -11.7326  -21.3658   31.1221 H   0  0  0  0  0  0  0  0  0  0  0  0
   -9.2341  -22.5611   32.4485 H   0  0  0  0  0  0  0  0  0  0  0  0
  -10.5468  -22.4243   32.4557 H   0  0  0  0  0  0  0  0  0  0  0  0
  1  2  1  0
  2  3  1  0
  3  4  2  0
  4  5  1  0
  5  6  2  0
  6  7  1  0
  7  8  2  0
  8  9  1  0
  9 10  2  0
 10 11  1  0
 11 12  1  0
 12 13  1  0
 13 14  1  0
 14 15  1  0
 15 16  2  0
 15 17  1  0
 17 18  1  0
 18 19  1  0
 19 20  2  0
 20 21  1  0
 21 22  1  0
 22 23  1  0
 23 24  1  0
  8  3  1  0
 21 17  2  0
 11  7  1  0
 24 20  1  0
  1 25  1  0
  1 26  1  0
  1 27  1  0
  4 28  1  0
  5 29  1  0
  6 30  1  0
  9 31  1  0
 10 32  1  0
 12 33  1  0
 12 34  1  0
 13 35  1  0
 13 36  1  0
 14 37  1  0
 18 38  1  0
 22 39  1  0
 22 40  1  0
 23 41  1  0
 23 42  1  0
 24 43  1  0
 24 44  1  0
M  END
>  <Energy>  (1087) 
1464.2178019252315

>  <compound_id>  (1087) 
46198

>  <target_id>  (1087) 
1

>  <reference_id>  (1087) 
40

>  <inspiration_ids>  (1087) 
[40, 123]

>  <energy_score>  (1087) 
1414.9159817727118

>  <distance_score>  (1087) 
5.182347673682934

>  <path>  (1087) 
/opt/xchem-fragalysis-2/maxwin/BulkDock/SCRATCH/511023/C46198-P40/C46198-P40.minimised.mol

>  <scratch_subdir>  (1087) 
/opt/xchem-fragalysis-2/maxwin/BulkDock/SCRATCH/511023/C46198-P40

>  <fragmenstein_runtime>  (1087) 
17.208976984024048

>  <fragmenstein_outcome>  (1087) 
too moved

>  <fragmenstein_mode>  (1087) 
expansion

>  <fragmenstein_error>  (1087) 


$$$$
C46198-P123
     RDKit          3D

 44 47  0  0  0  0  0  0  0  0999 V2000
   -1.0445   -7.8400   31.4814 C   0  0  0  0  0  0  0  0  0  0  0  0
   -1.4729   -9.1545   31.0720 O   0  0  0  0  0  0  0  0  0  0  0  0
   -2.5884   -9.7116   31.6892 C   0  0  0  0  0  0  0  0  0  0  0  0
   -3.1945   -8.9778   32.6619 C   0  0  0  0  0  0  0  0  0  0  0  0
   -4.5015   -9.2746   32.8743 C   0  0  0  0  0  0  0  0  0  0  0  0
   -5.2124  -10.3742   32.2177 C   0  0  0  0  0  0  0  0  0  0  0  0
   -4.7987  -11.4418   31.2419 C   0  0  0  0  0  0  0  0  0  0  0  0
   -3.2468  -10.9273   31.0216 C   0  0  0  0  0  0  0  0  0  0  0  0
   -2.9188  -11.7543   29.9620 C   0  0  0  0  0  0  0  0  0  0  0  0
   -4.0715  -12.4245   29.5900 C   0  0  0  0  0  0  0  0  0  0  0  0
   -5.0891  -12.7118   30.5190 N   0  0  0  0  0  0  0  0  0  0  0  0
   -6.0872  -14.3091   30.7229 C   0  0  0  0  0  0  0  0  0  0  0  0
   -5.8492  -16.0086   31.9120 C   0  0  0  0  0  0  0  0  0  0  0  0
   -6.9433  -16.7962   32.8914 N   0  0  0  0  0  0  0  0  0  0  0  0
   -7.4059  -16.5047   34.1846 C   0  0  0  0  0  0  0  0  0  0  0  0
   -7.0743  -15.6645   34.9544 O   0  0  0  0  0  0  0  0  0  0  0  0
   -8.5756  -17.2944   34.6489 C   0  0  0  0  0  0  0  0  0  0  0  0
   -9.0991  -16.8749   35.8718 N   0  0  0  0  0  0  0  0  0  0  0  0
  -10.4230  -17.0629   36.0921 N   0  0  0  0  0  0  0  0  0  0  0  0
  -10.8114  -17.6578   34.9732 C   0  0  0  0  0  0  0  0  0  0  0  0
   -9.6833  -17.9270   34.0662 C   0  0  0  0  0  0  0  0  0  0  0  0
  -10.0943  -19.3566   33.1951 C   0  0  0  0  0  0  0  0  0  0  0  0
  -11.6332  -19.6962   33.8344 C   0  0  0  0  0  0  0  0  0  0  0  0
  -12.0772  -18.4865   34.7512 C   0  0  0  0  0  0  0  0  0  0  0  0
   -0.6732   -7.8516   32.5096 H   0  0  0  0  0  0  0  0  0  0  0  0
   -0.2303   -7.5329   30.8251 H   0  0  0  0  0  0  0  0  0  0  0  0
   -1.8455   -7.1068   31.3590 H   0  0  0  0  0  0  0  0  0  0  0  0
   -2.6967   -8.2219   33.2506 H   0  0  0  0  0  0  0  0  0  0  0  0
   -4.9727   -8.8597   33.7621 H   0  0  0  0  0  0  0  0  0  0  0  0
   -6.0252  -10.6514   32.8122 H   0  0  0  0  0  0  0  0  0  0  0  0
   -2.1211  -11.3495   29.3942 H   0  0  0  0  0  0  0  0  0  0  0  0
   -4.4154  -12.2169   28.6050 H   0  0  0  0  0  0  0  0  0  0  0  0
   -6.9884  -13.8311   31.0653 H   0  0  0  0  0  0  0  0  0  0  0  0
   -6.1010  -14.5387   29.6744 H   0  0  0  0  0  0  0  0  0  0  0  0
   -5.0089  -16.1971   32.5884 H   0  0  0  0  0  0  0  0  0  0  0  0
   -5.7476  -16.7001   31.0867 H   0  0  0  0  0  0  0  0  0  0  0  0
   -7.3971  -17.6387   32.5626 H   0  0  0  0  0  0  0  0  0  0  0  0
   -8.5825  -16.2927   36.5186 H   0  0  0  0  0  0  0  0  0  0  0  0
  -10.1948  -19.6501   32.1767 H   0  0  0  0  0  0  0  0  0  0  0  0
   -9.2134  -19.9921   33.3582 H   0  0  0  0  0  0  0  0  0  0  0  0
  -12.2400  -20.1365   33.0640 H   0  0  0  0  0  0  0  0  0  0  0  0
  -11.7650  -20.5728   34.4707 H   0  0  0  0  0  0  0  0  0  0  0  0
  -12.4531  -18.8598   35.7105 H   0  0  0  0  0  0  0  0  0  0  0  0
  -12.8765  -17.8908   34.3022 H   0  0  0  0  0  0  0  0  0  0  0  0
  1  2  1  0
  2  3  1  0
  3  4  2  0
  4  5  1  0
  5  6  2  0
  6  7  1  0
  7  8  2  0
  8  9  1  0
  9 10  2  0
 10 11  1  0
 11 12  1  0
 12 13  1  0
 13 14  1  0
 14 15  1  0
 15 16  2  0
 15 17  1  0
 17 18  1  0
 18 19  1  0
 19 20  2  0
 20 21  1  0
 21 22  1  0
 22 23  1  0
 23 24  1  0
  8  3  1  0
 21 17  2  0
 11  7  1  0
 24 20  1  0
  1 25  1  0
  1 26  1  0
  1 27  1  0
  4 28  1  0
  5 29  1  0
  6 30  1  0
  9 31  1  0
 10 32  1  0
 12 33  1  0
 12 34  1  0
 13 35  1  0
 13 36  1  0
 14 37  1  0
 18 38  1  0
 22 39  1  0
 22 40  1  0
 23 41  1  0
 23 42  1  0
 24 43  1  0
 24 44  1  0
M  END
>  <Energy>  (1088) 
411.30742770021436

>  <compound_id>  (1088) 
46198

>  <target_id>  (1088) 
1

>  <reference_id>  (1088) 
123

>  <inspiration_ids>  (1088) 
[40, 123]

>  <energy_score>  (1088) 
362.00560754770567

>  <distance_score>  (1088) 
7.384976400487618

>  <path>  (1088) 
/opt/xchem-fragalysis-2/maxwin/BulkDock/SCRATCH/511023/C46198-P123/C46198-P123.minimised.mol

>  <scratch_subdir>  (1088) 
/opt/xchem-fragalysis-2/maxwin/BulkDock/SCRATCH/511023/C46198-P123

>  <fragmenstein_runtime>  (1088) 
22.088679790496826

>  <fragmenstein_outcome>  (1088) 
too moved

>  <fragmenstein_mode>  (1088) 
expansion

>  <fragmenstein_error>  (1088) 


$$$$
C25404-P40
     RDKit          3D

 39 41  0  0  0  0  0  0  0  0999 V2000
   -3.5555  -15.2764   31.1470 O   0  0  0  0  0  0  0  0  0  0  0  0
   -4.7153  -15.0237   30.8931 C   0  0  0  0  0  0  0  0  0  0  0  0
   -5.8067  -15.9274   31.5030 C   0  0  0  0  0  0  0  0  0  0  0  0
   -6.7181  -17.5817   32.2336 C   0  0  0  0  0  0  0  0  0  0  0  0
   -6.9590  -19.0790   33.2050 C   0  0  0  0  0  0  0  0  0  0  0  0
   -7.9689  -19.3869   34.1703 C   0  0  0  0  0  0  0  0  0  0  0  0
   -7.5654  -20.5721   34.8085 C   0  0  0  0  0  0  0  0  0  0  0  0
   -6.4571  -21.0719   34.2767 N   0  0  0  0  0  0  0  0  0  0  0  0
   -6.1465  -20.2034   33.2969 N   0  0  0  0  0  0  0  0  0  0  0  0
   -5.3752  -13.7244   30.0329 N   0  0  0  0  0  0  0  0  0  0  0  0
   -4.4924  -12.2367   29.1057 C   0  0  0  0  0  0  0  0  0  0  0  0
   -2.7102  -11.6556   29.2097 C   0  0  0  0  0  0  0  0  0  0  0  0
   -1.4382  -10.4714   30.0586 C   0  0  0  0  0  0  0  0  0  0  0  0
   -1.4025   -9.6169   31.2497 C   0  0  0  0  0  0  0  0  0  0  0  0
   -0.7278   -8.3708   31.0229 C   0  0  0  0  0  0  0  0  0  0  0  0
   -0.5983   -7.1839   31.7682 C   0  0  0  0  0  0  0  0  0  0  0  0
    0.0700   -6.0965   31.2055 C   0  0  0  0  0  0  0  0  0  0  0  0
    0.6219   -6.2014   29.9350 C   0  0  0  0  0  0  0  0  0  0  0  0
    0.5183   -7.3921   29.2002 C   0  0  0  0  0  0  0  0  0  0  0  0
   -0.2031   -8.4579   29.7508 C   0  0  0  0  0  0  0  0  0  0  0  0
   -0.5334   -9.7235   29.2908 N   0  0  0  0  0  0  0  0  0  0  0  0
   -5.8295  -16.2920   30.4409 H   0  0  0  0  0  0  0  0  0  0  0  0
   -6.4844  -15.0752   31.6370 H   0  0  0  0  0  0  0  0  0  0  0  0
   -5.8021  -17.6821   32.7440 H   0  0  0  0  0  0  0  0  0  0  0  0
   -7.5475  -17.1553   32.7670 H   0  0  0  0  0  0  0  0  0  0  0  0
   -8.8395  -18.7833   34.3908 H   0  0  0  0  0  0  0  0  0  0  0  0
   -8.0216  -21.0897   35.6382 H   0  0  0  0  0  0  0  0  0  0  0  0
   -5.2727  -20.3781   32.8257 H   0  0  0  0  0  0  0  0  0  0  0  0
   -6.3760  -13.8543   29.9301 H   0  0  0  0  0  0  0  0  0  0  0  0
   -5.3078  -11.5780   29.3244 H   0  0  0  0  0  0  0  0  0  0  0  0
   -4.5985  -12.0862   28.0074 H   0  0  0  0  0  0  0  0  0  0  0  0
   -3.2432  -11.3505   30.0240 H   0  0  0  0  0  0  0  0  0  0  0  0
   -2.3103  -12.5935   29.0536 H   0  0  0  0  0  0  0  0  0  0  0  0
   -2.0467   -9.6343   32.1123 H   0  0  0  0  0  0  0  0  0  0  0  0
   -1.0244   -7.1103   32.7656 H   0  0  0  0  0  0  0  0  0  0  0  0
    0.1683   -5.1715   31.7696 H   0  0  0  0  0  0  0  0  0  0  0  0
    1.1588   -5.3523   29.5144 H   0  0  0  0  0  0  0  0  0  0  0  0
    1.0054   -7.4601   28.2405 H   0  0  0  0  0  0  0  0  0  0  0  0
   -0.4009  -10.0613   28.3764 H   0  0  0  0  0  0  0  0  0  0  0  0
  1  2  2  0
  2  3  1  0
  3  4  1  0
  4  5  1  0
  5  6  2  0
  6  7  1  0
  7  8  2  0
  8  9  1  0
  2 10  1  0
 10 11  1  0
 11 12  1  0
 12 13  1  0
 13 14  2  0
 14 15  1  0
 15 16  2  0
 16 17  1  0
 17 18  2  0
 18 19  1  0
 19 20  2  0
 20 21  1  0
  9  5  1  0
 21 13  1  0
 20 15  1  0
  3 22  1  0
  3 23  1  0
  4 24  1  0
  4 25  1  0
  6 26  1  0
  7 27  1  0
  9 28  1  0
 10 29  1  0
 11 30  1  0
 11 31  1  0
 12 32  1  0
 12 33  1  0
 14 34  1  0
 16 35  1  0
 17 36  1  0
 18 37  1  0
 19 38  1  0
 21 39  1  0
M  END
>  <Energy>  (1089) 
518.61450227489684

>  <compound_id>  (1089) 
25404

>  <target_id>  (1089) 
1

>  <reference_id>  (1089) 
40

>  <inspiration_ids>  (1089) 
[40, 123]

>  <energy_score>  (1089) 
486.61525603452355

>  <distance_score>  (1089) 
5.07192177100938

>  <path>  (1089) 
/opt/xchem-fragalysis-2/maxwin/BulkDock/SCRATCH/511023/C25404-P40/C25404-P40.minimised.mol

>  <scratch_subdir>  (1089) 
/opt/xchem-fragalysis-2/maxwin/BulkDock/SCRATCH/511023/C25404-P40

>  <fragmenstein_runtime>  (1089) 
20.303016662597656

>  <fragmenstein_outcome>  (1089) 
too moved

>  <fragmenstein_mode>  (1089) 
expansion

>  <fragmenstein_error>  (1089) 


$$$$
C25404-P123
     RDKit          3D

 39 41  0  0  0  0  0  0  0  0999 V2000
   -5.3746  -16.6670   29.5183 O   0  0  0  0  0  0  0  0  0  0  0  0
   -6.2532  -15.9868   29.0621 C   0  0  0  0  0  0  0  0  0  0  0  0
   -7.6722  -17.1137   28.0670 C   0  0  0  0  0  0  0  0  0  0  0  0
   -8.5541  -18.9717   28.1853 C   0  0  0  0  0  0  0  0  0  0  0  0
   -9.3257  -20.8592   27.6330 C   0  0  0  0  0  0  0  0  0  0  0  0
  -10.4822  -21.6855   28.0296 C   0  0  0  0  0  0  0  0  0  0  0  0
  -10.2962  -23.0090   27.6124 C   0  0  0  0  0  0  0  0  0  0  0  0
   -9.0497  -23.2148   27.2286 N   0  0  0  0  0  0  0  0  0  0  0  0
   -8.4481  -22.0295   27.4177 N   0  0  0  0  0  0  0  0  0  0  0  0
   -6.3855  -14.2627   29.2108 N   0  0  0  0  0  0  0  0  0  0  0  0
   -5.2088  -12.9917   29.9606 C   0  0  0  0  0  0  0  0  0  0  0  0
   -3.5057  -12.1351   29.7441 C   0  0  0  0  0  0  0  0  0  0  0  0
   -2.2672  -10.8769   30.5175 C   0  0  0  0  0  0  0  0  0  0  0  0
   -2.4081   -9.9210   31.6244 C   0  0  0  0  0  0  0  0  0  0  0  0
   -1.5190   -8.7876   31.5592 C   0  0  0  0  0  0  0  0  0  0  0  0
   -1.4297   -7.5812   32.2760 C   0  0  0  0  0  0  0  0  0  0  0  0
   -0.8273   -6.4795   31.6695 C   0  0  0  0  0  0  0  0  0  0  0  0
   -0.4273   -6.5516   30.3412 C   0  0  0  0  0  0  0  0  0  0  0  0
   -0.5023   -7.7580   29.6267 C   0  0  0  0  0  0  0  0  0  0  0  0
   -0.8573   -8.9322   30.3250 C   0  0  0  0  0  0  0  0  0  0  0  0
   -1.0664  -10.3046   29.8991 N   0  0  0  0  0  0  0  0  0  0  0  0
   -8.0236  -16.6734   27.1213 H   0  0  0  0  0  0  0  0  0  0  0  0
   -8.3411  -16.4153   28.3887 H   0  0  0  0  0  0  0  0  0  0  0  0
   -7.7262  -19.6325   27.8874 H   0  0  0  0  0  0  0  0  0  0  0  0
   -8.0810  -18.9921   29.0847 H   0  0  0  0  0  0  0  0  0  0  0  0
  -11.3691  -21.3691   28.5650 H   0  0  0  0  0  0  0  0  0  0  0  0
  -10.9873  -23.8403   27.6563 H   0  0  0  0  0  0  0  0  0  0  0  0
   -7.4422  -22.0367   27.5355 H   0  0  0  0  0  0  0  0  0  0  0  0
   -7.1787  -13.9379   28.6597 H   0  0  0  0  0  0  0  0  0  0  0  0
   -5.6204  -12.7233   30.9121 H   0  0  0  0  0  0  0  0  0  0  0  0
   -5.5503  -12.2244   29.2696 H   0  0  0  0  0  0  0  0  0  0  0  0
   -3.9482  -11.7559   30.6591 H   0  0  0  0  0  0  0  0  0  0  0  0
   -2.9013  -13.0035   29.7301 H   0  0  0  0  0  0  0  0  0  0  0  0
   -3.2699   -9.8465   32.2611 H   0  0  0  0  0  0  0  0  0  0  0  0
   -1.8672   -7.4847   33.2640 H   0  0  0  0  0  0  0  0  0  0  0  0
   -0.7319   -5.5473   32.2203 H   0  0  0  0  0  0  0  0  0  0  0  0
   -0.0321   -5.6663   29.8486 H   0  0  0  0  0  0  0  0  0  0  0  0
   -0.2073   -7.7944   28.5819 H   0  0  0  0  0  0  0  0  0  0  0  0
   -0.6839  -10.6590   29.0400 H   0  0  0  0  0  0  0  0  0  0  0  0
  1  2  2  0
  2  3  1  0
  3  4  1  0
  4  5  1  0
  5  6  2  0
  6  7  1  0
  7  8  2  0
  8  9  1  0
  2 10  1  0
 10 11  1  0
 11 12  1  0
 12 13  1  0
 13 14  2  0
 14 15  1  0
 15 16  2  0
 16 17  1  0
 17 18  2  0
 18 19  1  0
 19 20  2  0
 20 21  1  0
  9  5  1  0
 21 13  1  0
 20 15  1  0
  3 22  1  0
  3 23  1  0
  4 24  1  0
  4 25  1  0
  6 26  1  0
  7 27  1  0
  9 28  1  0
 10 29  1  0
 11 30  1  0
 11 31  1  0
 12 32  1  0
 12 33  1  0
 14 34  1  0
 16 35  1  0
 17 36  1  0
 18 37  1  0
 19 38  1  0
 21 39  1  0
M  END
>  <Energy>  (1090) 
697.79273310932422

>  <compound_id>  (1090) 
25404

>  <target_id>  (1090) 
1

>  <reference_id>  (1090) 
123

>  <inspiration_ids>  (1090) 
[40, 123]

>  <energy_score>  (1090) 
665.7934868689689

>  <distance_score>  (1090) 
5.041470353138277

>  <path>  (1090) 
/opt/xchem-fragalysis-2/maxwin/BulkDock/SCRATCH/511023/C25404-P123/C25404-P123.minimised.mol

>  <scratch_subdir>  (1090) 
/opt/xchem-fragalysis-2/maxwin/BulkDock/SCRATCH/511023/C25404-P123

>  <fragmenstein_runtime>  (1090) 
14.296969652175903

>  <fragmenstein_outcome>  (1090) 
too moved

>  <fragmenstein_mode>  (1090) 
expansion

>  <fragmenstein_error>  (1090) 


$$$$
C30256-P40
     RDKit          3D

 36 38  0  0  0  0  0  0  0  0999 V2000
   -6.5039  -14.1032   30.1091 C   0  0  0  0  0  0  0  0  0  0  0  0
   -5.8373  -15.3957   30.4189 C   0  0  0  0  0  0  0  0  0  0  0  0
   -5.7262  -15.6636   31.7856 N   0  0  0  0  0  0  0  0  0  0  0  0
   -3.8527  -15.4867   31.1357 C   0  0  0  0  0  0  0  0  0  0  0  0
   -2.9177  -14.4983   29.5995 C   0  0  0  0  0  0  0  0  0  0  0  0
   -2.2785  -14.9004   28.2926 C   0  0  0  0  0  0  0  0  0  0  0  0
   -2.4492  -13.7823   27.0060 N   0  0  0  0  0  0  0  0  0  0  0  0
   -2.7367  -12.1992   27.8030 C   0  0  0  0  0  0  0  0  0  0  0  0
   -1.8577  -11.1223   27.6371 C   0  0  0  0  0  0  0  0  0  0  0  0
   -0.9348  -10.1099   28.7216 C   0  0  0  0  0  0  0  0  0  0  0  0
   -1.0783  -10.2716   29.9904 C   0  0  0  0  0  0  0  0  0  0  0  0
   -1.7896  -11.4385   29.9601 C   0  0  0  0  0  0  0  0  0  0  0  0
   -2.7531  -12.5650   29.2019 C   0  0  0  0  0  0  0  0  0  0  0  0
   -6.6959  -17.1892   32.5631 C   0  0  0  0  0  0  0  0  0  0  0  0
   -6.1448  -18.2234   32.5987 O   0  0  0  0  0  0  0  0  0  0  0  0
   -8.3444  -17.3639   33.4701 C   0  0  0  0  0  0  0  0  0  0  0  0
   -9.6051  -16.5462   33.8228 C   0  0  0  0  0  0  0  0  0  0  0  0
  -10.2461  -17.2118   34.8399 C   0  0  0  0  0  0  0  0  0  0  0  0
   -9.5820  -18.3830   34.9755 N   0  0  0  0  0  0  0  0  0  0  0  0
   -8.5653  -18.5524   34.1341 N   0  0  0  0  0  0  0  0  0  0  0  0
   -5.8082  -13.3363   29.8403 H   0  0  0  0  0  0  0  0  0  0  0  0
   -6.9350  -13.7975   31.0474 H   0  0  0  0  0  0  0  0  0  0  0  0
   -7.0830  -14.0881   29.1723 H   0  0  0  0  0  0  0  0  0  0  0  0
   -5.1028  -14.6715   30.4095 H   0  0  0  0  0  0  0  0  0  0  0  0
   -5.6244  -16.1843   29.7021 H   0  0  0  0  0  0  0  0  0  0  0  0
   -3.2613  -15.0150   31.9198 H   0  0  0  0  0  0  0  0  0  0  0  0
   -3.6946  -16.5069   31.2289 H   0  0  0  0  0  0  0  0  0  0  0  0
   -2.0017  -15.8495   27.8454 H   0  0  0  0  0  0  0  0  0  0  0  0
   -1.9455  -13.7994   26.1310 H   0  0  0  0  0  0  0  0  0  0  0  0
   -2.0402  -10.8118   26.6227 H   0  0  0  0  0  0  0  0  0  0  0  0
   -0.4748   -9.1393   28.5426 H   0  0  0  0  0  0  0  0  0  0  0  0
   -0.7615   -9.6923   30.8304 H   0  0  0  0  0  0  0  0  0  0  0  0
   -1.1905  -11.8313   30.8035 H   0  0  0  0  0  0  0  0  0  0  0  0
   -9.8599  -15.5623   33.4461 H   0  0  0  0  0  0  0  0  0  0  0  0
  -11.1169  -16.9748   35.4334 H   0  0  0  0  0  0  0  0  0  0  0  0
   -9.7926  -19.1496   35.6045 H   0  0  0  0  0  0  0  0  0  0  0  0
  1  2  1  0
  2  3  1  0
  3  4  1  0
  4  5  1  0
  5  6  2  0
  6  7  1  0
  7  8  1  0
  8  9  2  0
  9 10  1  0
 10 11  2  0
 11 12  1  0
 12 13  2  0
  3 14  1  0
 14 15  2  0
 14 16  1  0
 16 17  1  0
 17 18  2  0
 18 19  1  0
 19 20  1  0
 13  5  1  0
 20 16  2  0
 13  8  1  0
  1 21  1  0
  1 22  1  0
  1 23  1  0
  2 24  1  0
  2 25  1  0
  4 26  1  0
  4 27  1  0
  6 28  1  0
  7 29  1  0
  9 30  1  0
 10 31  1  0
 11 32  1  0
 12 33  1  0
 17 34  1  0
 18 35  1  0
 19 36  1  0
M  END
>  <Energy>  (1091) 
856.42833347615942

>  <compound_id>  (1091) 
30256

>  <target_id>  (1091) 
1

>  <reference_id>  (1091) 
40

>  <inspiration_ids>  (1091) 
[40, 123]

>  <energy_score>  (1091) 
776.3335777059726

>  <distance_score>  (1091) 
7.5432367160655796

>  <path>  (1091) 
/opt/xchem-fragalysis-2/maxwin/BulkDock/SCRATCH/511023/C30256-P40/C30256-P40.minimised.mol

>  <scratch_subdir>  (1091) 
/opt/xchem-fragalysis-2/maxwin/BulkDock/SCRATCH/511023/C30256-P40

>  <fragmenstein_runtime>  (1091) 
14.47921109199524

>  <fragmenstein_outcome>  (1091) 
too moved

>  <fragmenstein_mode>  (1091) 
expansion

>  <fragmenstein_error>  (1091) 


$$$$
C30256-P123
     RDKit          3D

 36 38  0  0  0  0  0  0  0  0999 V2000
   -8.0117  -14.5176   28.3568 C   0  0  0  0  0  0  0  0  0  0  0  0
   -8.8384  -14.4074   29.9710 C   0  0  0  0  0  0  0  0  0  0  0  0
   -8.4392  -14.4312   31.9022 N   0  0  0  0  0  0  0  0  0  0  0  0
   -7.0729  -13.6772   31.1553 C   0  0  0  0  0  0  0  0  0  0  0  0
   -6.8910  -11.8424   31.8533 C   0  0  0  0  0  0  0  0  0  0  0  0
   -5.8080  -11.0513   31.5880 C   0  0  0  0  0  0  0  0  0  0  0  0
   -5.8957   -9.7724   32.0791 N   0  0  0  0  0  0  0  0  0  0  0  0
   -7.1871   -9.4302   32.2604 C   0  0  0  0  0  0  0  0  0  0  0  0
   -7.7485   -8.1606   32.3941 C   0  0  0  0  0  0  0  0  0  0  0  0
   -9.0626   -8.0874   32.8156 C   0  0  0  0  0  0  0  0  0  0  0  0
   -9.7579   -9.2539   33.0944 C   0  0  0  0  0  0  0  0  0  0  0  0
   -9.1818  -10.5169   32.8750 C   0  0  0  0  0  0  0  0  0  0  0  0
   -7.8718  -10.6389   32.3575 C   0  0  0  0  0  0  0  0  0  0  0  0
   -8.4982  -15.8026   32.8353 C   0  0  0  0  0  0  0  0  0  0  0  0
   -7.6261  -16.6097   33.1067 O   0  0  0  0  0  0  0  0  0  0  0  0
   -9.8671  -16.1311   33.6372 C   0  0  0  0  0  0  0  0  0  0  0  0
  -11.1738  -15.5594   33.6698 C   0  0  0  0  0  0  0  0  0  0  0  0
  -11.9176  -16.2710   34.5826 C   0  0  0  0  0  0  0  0  0  0  0  0
  -11.0590  -17.1744   35.1043 N   0  0  0  0  0  0  0  0  0  0  0  0
   -9.8434  -17.1326   34.5563 N   0  0  0  0  0  0  0  0  0  0  0  0
   -7.1141  -13.9297   28.2990 H   0  0  0  0  0  0  0  0  0  0  0  0
   -7.8994  -15.5800   28.1152 H   0  0  0  0  0  0  0  0  0  0  0  0
   -8.6738  -14.1300   27.5630 H   0  0  0  0  0  0  0  0  0  0  0  0
   -9.1150  -13.6230   29.3196 H   0  0  0  0  0  0  0  0  0  0  0  0
   -9.9406  -14.5152   29.9498 H   0  0  0  0  0  0  0  0  0  0  0  0
   -6.3249  -14.4499   31.1082 H   0  0  0  0  0  0  0  0  0  0  0  0
   -6.8315  -13.6745   30.0932 H   0  0  0  0  0  0  0  0  0  0  0  0
   -4.9319  -11.4979   31.1305 H   0  0  0  0  0  0  0  0  0  0  0  0
   -5.1585   -9.0808   32.0774 H   0  0  0  0  0  0  0  0  0  0  0  0
   -7.1955   -7.2670   32.1521 H   0  0  0  0  0  0  0  0  0  0  0  0
   -9.5457   -7.1223   32.9372 H   0  0  0  0  0  0  0  0  0  0  0  0
  -10.7808   -9.1956   33.4591 H   0  0  0  0  0  0  0  0  0  0  0  0
   -9.7664  -11.3904   33.1164 H   0  0  0  0  0  0  0  0  0  0  0  0
  -11.5597  -14.7242   33.1360 H   0  0  0  0  0  0  0  0  0  0  0  0
  -12.9399  -16.1834   34.9195 H   0  0  0  0  0  0  0  0  0  0  0  0
  -11.2326  -17.8604   35.8308 H   0  0  0  0  0  0  0  0  0  0  0  0
  1  2  1  0
  2  3  1  0
  3  4  1  0
  4  5  1  0
  5  6  2  0
  6  7  1  0
  7  8  1  0
  8  9  2  0
  9 10  1  0
 10 11  2  0
 11 12  1  0
 12 13  2  0
  3 14  1  0
 14 15  2  0
 14 16  1  0
 16 17  1  0
 17 18  2  0
 18 19  1  0
 19 20  1  0
 13  5  1  0
 20 16  2  0
 13  8  1  0
  1 21  1  0
  1 22  1  0
  1 23  1  0
  2 24  1  0
  2 25  1  0
  4 26  1  0
  4 27  1  0
  6 28  1  0
  7 29  1  0
  9 30  1  0
 10 31  1  0
 11 32  1  0
 12 33  1  0
 17 34  1  0
 18 35  1  0
 19 36  1  0
M  END
>  <Energy>  (1092) 
457.43791339001359

>  <compound_id>  (1092) 
30256

>  <target_id>  (1092) 
1

>  <reference_id>  (1092) 
123

>  <inspiration_ids>  (1092) 
[40, 123]

>  <energy_score>  (1092) 
377.34315761983873

>  <distance_score>  (1092) 
9.5787649595958

>  <path>  (1092) 
/opt/xchem-fragalysis-2/maxwin/BulkDock/SCRATCH/511023/C30256-P123/C30256-P123.minimised.mol

>  <scratch_subdir>  (1092) 
/opt/xchem-fragalysis-2/maxwin/BulkDock/SCRATCH/511023/C30256-P123

>  <fragmenstein_runtime>  (1092) 
23.009745836257935

>  <fragmenstein_outcome>  (1092) 
too moved

>  <fragmenstein_mode>  (1092) 
expansion

>  <fragmenstein_error>  (1092) 


$$$$
C30257-P40
     RDKit          3D

 41 43  0  0  0  0  0  0  0  0999 V2000
   -5.2060  -20.6580   34.5057 C   0  0  0  0  0  0  0  0  0  0  0  0
   -5.4644  -19.8226   33.0526 N   0  0  0  0  0  0  0  0  0  0  0  0
   -6.4942  -20.8841   33.2508 C   0  0  0  0  0  0  0  0  0  0  0  0
   -8.0097  -21.4370   33.7297 C   0  0  0  0  0  0  0  0  0  0  0  0
   -9.3694  -21.8806   32.4055 C   0  0  0  0  0  0  0  0  0  0  0  0
   -9.6985  -23.4075   32.5646 C   0  0  0  0  0  0  0  0  0  0  0  0
   -8.5609  -23.8141   33.1289 N   0  0  0  0  0  0  0  0  0  0  0  0
   -7.7593  -22.7709   34.1909 N   0  0  0  0  0  0  0  0  0  0  0  0
   -5.6695  -17.9831   32.7051 C   0  0  0  0  0  0  0  0  0  0  0  0
   -6.7543  -17.4357   32.7034 O   0  0  0  0  0  0  0  0  0  0  0  0
   -3.9468  -17.1146   32.1469 N   0  0  0  0  0  0  0  0  0  0  0  0
   -3.6020  -15.3547   31.3533 C   0  0  0  0  0  0  0  0  0  0  0  0
   -2.7189  -14.3797   29.7429 C   0  0  0  0  0  0  0  0  0  0  0  0
   -2.4363  -12.2590   29.5743 C   0  0  0  0  0  0  0  0  0  0  0  0
   -1.1837  -11.4483   30.4632 C   0  0  0  0  0  0  0  0  0  0  0  0
   -1.2094  -10.0763   30.6354 C   0  0  0  0  0  0  0  0  0  0  0  0
   -1.0546   -9.0201   31.5879 C   0  0  0  0  0  0  0  0  0  0  0  0
   -0.5681   -7.7743   31.2300 C   0  0  0  0  0  0  0  0  0  0  0  0
   -0.1939   -7.5936   29.9310 C   0  0  0  0  0  0  0  0  0  0  0  0
   -0.4158   -8.6192   28.9867 C   0  0  0  0  0  0  0  0  0  0  0  0
   -0.9572   -9.9543   29.3098 C   0  0  0  0  0  0  0  0  0  0  0  0
   -2.0469  -11.1838   28.6690 N   0  0  0  0  0  0  0  0  0  0  0  0
   -5.0325  -21.7530   34.4310 H   0  0  0  0  0  0  0  0  0  0  0  0
   -4.1270  -20.5100   34.7374 H   0  0  0  0  0  0  0  0  0  0  0  0
   -5.9754  -20.5427   35.3108 H   0  0  0  0  0  0  0  0  0  0  0  0
   -6.0180  -21.8708   33.1397 H   0  0  0  0  0  0  0  0  0  0  0  0
   -6.8053  -20.6225   32.2692 H   0  0  0  0  0  0  0  0  0  0  0  0
  -10.0618  -21.2393   31.8875 H   0  0  0  0  0  0  0  0  0  0  0  0
  -10.4846  -23.9801   32.1246 H   0  0  0  0  0  0  0  0  0  0  0  0
   -8.2150  -24.7430   33.0487 H   0  0  0  0  0  0  0  0  0  0  0  0
   -3.1637  -17.7505   32.3158 H   0  0  0  0  0  0  0  0  0  0  0  0
   -4.6538  -15.0948   31.2089 H   0  0  0  0  0  0  0  0  0  0  0  0
   -2.9720  -14.9117   32.1129 H   0  0  0  0  0  0  0  0  0  0  0  0
   -3.5951  -13.9997   29.5327 H   0  0  0  0  0  0  0  0  0  0  0  0
   -2.2775  -14.9199   28.8998 H   0  0  0  0  0  0  0  0  0  0  0  0
   -0.2702  -11.9046   30.7705 H   0  0  0  0  0  0  0  0  0  0  0  0
   -1.2867   -9.1529   32.6321 H   0  0  0  0  0  0  0  0  0  0  0  0
   -0.4570   -6.9896   31.9721 H   0  0  0  0  0  0  0  0  0  0  0  0
    0.1735   -6.6199   29.6135 H   0  0  0  0  0  0  0  0  0  0  0  0
   -0.3911   -8.1743   28.0155 H   0  0  0  0  0  0  0  0  0  0  0  0
   -2.1273  -11.2729   27.6639 H   0  0  0  0  0  0  0  0  0  0  0  0
  1  2  1  0
  2  3  1  0
  3  4  1  0
  4  5  1  0
  5  6  2  0
  6  7  1  0
  7  8  1  0
  2  9  1  0
  9 10  2  0
  9 11  1  0
 11 12  1  0
 12 13  1  0
 13 14  1  0
 14 15  2  0
 15 16  1  0
 16 17  2  0
 17 18  1  0
 18 19  2  0
 19 20  1  0
 20 21  2  0
 21 22  1  0
  8  4  2  0
 22 14  1  0
 21 16  1  0
  1 23  1  0
  1 24  1  0
  1 25  1  0
  3 26  1  0
  3 27  1  0
  5 28  1  0
  6 29  1  0
  7 30  1  0
 11 31  1  0
 12 32  1  0
 12 33  1  0
 13 34  1  0
 13 35  1  0
 15 36  1  0
 17 37  1  0
 18 38  1  0
 19 39  1  0
 20 40  1  0
 22 41  1  0
M  END
>  <Energy>  (1093) 
1004.9083746360759

>  <compound_id>  (1093) 
30257

>  <target_id>  (1093) 
1

>  <reference_id>  (1093) 
40

>  <inspiration_ids>  (1093) 
[40, 123]

>  <energy_score>  (1093) 
1010.3920830147467

>  <distance_score>  (1093) 
4.534155649751962

>  <path>  (1093) 
/opt/xchem-fragalysis-2/maxwin/BulkDock/SCRATCH/511023/C30257-P40/C30257-P40.minimised.mol

>  <scratch_subdir>  (1093) 
/opt/xchem-fragalysis-2/maxwin/BulkDock/SCRATCH/511023/C30257-P40

>  <fragmenstein_runtime>  (1093) 
12.192741870880127

>  <fragmenstein_outcome>  (1093) 
too moved

>  <fragmenstein_mode>  (1093) 
expansion

>  <fragmenstein_error>  (1093) 


$$$$
C30257-P123
     RDKit          3D

 41 43  0  0  0  0  0  0  0  0999 V2000
   -5.1334  -16.4044   32.6672 C   0  0  0  0  0  0  0  0  0  0  0  0
   -5.8182  -16.2606   31.4286 N   0  0  0  0  0  0  0  0  0  0  0  0
   -6.7455  -17.5309   32.3307 C   0  0  0  0  0  0  0  0  0  0  0  0
   -7.5150  -17.6885   33.8103 C   0  0  0  0  0  0  0  0  0  0  0  0
   -8.6770  -16.9897   34.3085 C   0  0  0  0  0  0  0  0  0  0  0  0
   -8.7386  -17.2442   35.6521 C   0  0  0  0  0  0  0  0  0  0  0  0
   -7.7213  -18.1071   35.8778 N   0  0  0  0  0  0  0  0  0  0  0  0
   -7.1321  -18.5355   34.7594 N   0  0  0  0  0  0  0  0  0  0  0  0
   -6.2871  -14.5350   30.9442 C   0  0  0  0  0  0  0  0  0  0  0  0
   -7.3245  -14.1082   31.2675 O   0  0  0  0  0  0  0  0  0  0  0  0
   -5.0860  -13.7355   30.2165 N   0  0  0  0  0  0  0  0  0  0  0  0
   -4.9299  -12.3161   29.8971 C   0  0  0  0  0  0  0  0  0  0  0  0
   -3.2231  -11.9074   29.8348 C   0  0  0  0  0  0  0  0  0  0  0  0
   -2.1478  -10.6623   30.6473 C   0  0  0  0  0  0  0  0  0  0  0  0
   -2.3545   -9.7604   31.7494 C   0  0  0  0  0  0  0  0  0  0  0  0
   -1.5142   -8.5913   31.6918 C   0  0  0  0  0  0  0  0  0  0  0  0
   -1.4378   -7.4092   32.4490 C   0  0  0  0  0  0  0  0  0  0  0  0
   -0.8246   -6.2837   31.8961 C   0  0  0  0  0  0  0  0  0  0  0  0
   -0.3956   -6.3049   30.5756 C   0  0  0  0  0  0  0  0  0  0  0  0
   -0.4798   -7.4768   29.8118 C   0  0  0  0  0  0  0  0  0  0  0  0
   -0.8545   -8.6708   30.4585 C   0  0  0  0  0  0  0  0  0  0  0  0
   -0.9929  -10.0451   29.9997 N   0  0  0  0  0  0  0  0  0  0  0  0
   -4.9734  -17.4527   32.7662 H   0  0  0  0  0  0  0  0  0  0  0  0
   -4.0362  -16.2892   32.5856 H   0  0  0  0  0  0  0  0  0  0  0  0
   -5.6522  -15.9291   33.5005 H   0  0  0  0  0  0  0  0  0  0  0  0
   -7.2402  -17.9212   31.5014 H   0  0  0  0  0  0  0  0  0  0  0  0
   -7.2494  -16.6313   32.7610 H   0  0  0  0  0  0  0  0  0  0  0  0
   -9.3048  -16.2944   33.7698 H   0  0  0  0  0  0  0  0  0  0  0  0
   -9.3708  -16.8613   36.4373 H   0  0  0  0  0  0  0  0  0  0  0  0
   -7.3542  -18.4478   36.7633 H   0  0  0  0  0  0  0  0  0  0  0  0
   -4.2949  -14.3310   30.1376 H   0  0  0  0  0  0  0  0  0  0  0  0
   -5.4550  -12.0885   29.0066 H   0  0  0  0  0  0  0  0  0  0  0  0
   -5.2681  -11.7872   30.7860 H   0  0  0  0  0  0  0  0  0  0  0  0
   -3.1443  -11.6706   28.8007 H   0  0  0  0  0  0  0  0  0  0  0  0
   -2.7470  -12.8458   29.8496 H   0  0  0  0  0  0  0  0  0  0  0  0
   -3.2089   -9.7484   32.3981 H   0  0  0  0  0  0  0  0  0  0  0  0
   -1.8796   -7.3524   33.4383 H   0  0  0  0  0  0  0  0  0  0  0  0
   -0.7398   -5.3745   32.4859 H   0  0  0  0  0  0  0  0  0  0  0  0
    0.0130   -5.4024   30.1277 H   0  0  0  0  0  0  0  0  0  0  0  0
   -0.1715   -7.4731   28.7713 H   0  0  0  0  0  0  0  0  0  0  0  0
   -0.6236  -10.3699   29.1199 H   0  0  0  0  0  0  0  0  0  0  0  0
  1  2  1  0
  2  3  1  0
  3  4  1  0
  4  5  1  0
  5  6  2  0
  6  7  1  0
  7  8  1  0
  2  9  1  0
  9 10  2  0
  9 11  1  0
 11 12  1  0
 12 13  1  0
 13 14  1  0
 14 15  2  0
 15 16  1  0
 16 17  2  0
 17 18  1  0
 18 19  2  0
 19 20  1  0
 20 21  2  0
 21 22  1  0
  8  4  2  0
 22 14  1  0
 21 16  1  0
  1 23  1  0
  1 24  1  0
  1 25  1  0
  3 26  1  0
  3 27  1  0
  5 28  1  0
  6 29  1  0
  7 30  1  0
 11 31  1  0
 12 32  1  0
 12 33  1  0
 13 34  1  0
 13 35  1  0
 15 36  1  0
 17 37  1  0
 18 38  1  0
 19 39  1  0
 20 40  1  0
 22 41  1  0
M  END
>  <Energy>  (1094) 
346.86432507862469

>  <compound_id>  (1094) 
30257

>  <target_id>  (1094) 
1

>  <reference_id>  (1094) 
123

>  <inspiration_ids>  (1094) 
[40, 123]

>  <energy_score>  (1094) 
352.3480334572923

>  <distance_score>  (1094) 
6.042892266383623

>  <path>  (1094) 
/opt/xchem-fragalysis-2/maxwin/BulkDock/SCRATCH/511023/C30257-P123/C30257-P123.minimised.mol

>  <scratch_subdir>  (1094) 
/opt/xchem-fragalysis-2/maxwin/BulkDock/SCRATCH/511023/C30257-P123

>  <fragmenstein_runtime>  (1094) 
14.119021654129028

>  <fragmenstein_outcome>  (1094) 
too moved

>  <fragmenstein_mode>  (1094) 
expansion

>  <fragmenstein_error>  (1094) 


$$$$
C30258-P40
     RDKit          3D

 40 42  0  0  0  0  0  0  0  0999 V2000
   -8.1756  -14.7128   32.1064 C   0  0  0  0  0  0  0  0  0  0  0  0
   -6.5101  -15.5088   32.2037 N   0  0  0  0  0  0  0  0  0  0  0  0
   -6.0753  -13.9511   31.0616 C   0  0  0  0  0  0  0  0  0  0  0  0
   -5.9700  -11.9026   31.8743 C   0  0  0  0  0  0  0  0  0  0  0  0
   -5.2604   -9.9284   31.5874 N   0  0  0  0  0  0  0  0  0  0  0  0
   -3.4428   -9.1000   31.9012 C   0  0  0  0  0  0  0  0  0  0  0  0
   -2.5693   -9.7706   32.4281 O   0  0  0  0  0  0  0  0  0  0  0  0
   -2.8201   -7.7522   31.5049 C   0  0  0  0  0  0  0  0  0  0  0  0
   -2.0356   -7.2896   32.6677 C   0  0  0  0  0  0  0  0  0  0  0  0
   -1.3637   -6.1239   32.4487 N   0  0  0  0  0  0  0  0  0  0  0  0
   -0.8932   -6.2019   31.1783 C   0  0  0  0  0  0  0  0  0  0  0  0
    0.1501   -5.4651   30.6053 C   0  0  0  0  0  0  0  0  0  0  0  0
    0.8101   -6.0401   29.5372 C   0  0  0  0  0  0  0  0  0  0  0  0
    0.4703   -7.3246   29.1497 C   0  0  0  0  0  0  0  0  0  0  0  0
   -0.6224   -8.0056   29.7188 C   0  0  0  0  0  0  0  0  0  0  0  0
   -1.4911   -7.3706   30.6587 C   0  0  0  0  0  0  0  0  0  0  0  0
   -6.6642  -17.3900   31.8979 C   0  0  0  0  0  0  0  0  0  0  0  0
   -6.5735  -17.8756   30.7789 O   0  0  0  0  0  0  0  0  0  0  0  0
   -7.1003  -18.6165   33.0428 C   0  0  0  0  0  0  0  0  0  0  0  0
   -8.3344  -18.6852   33.9455 C   0  0  0  0  0  0  0  0  0  0  0  0
   -8.1624  -19.7963   34.7448 C   0  0  0  0  0  0  0  0  0  0  0  0
   -7.0884  -20.4577   34.2350 N   0  0  0  0  0  0  0  0  0  0  0  0
   -6.4273  -19.8057   33.2500 N   0  0  0  0  0  0  0  0  0  0  0  0
   -8.6243  -15.6701   32.3512 H   0  0  0  0  0  0  0  0  0  0  0  0
   -8.9852  -14.6120   32.8916 H   0  0  0  0  0  0  0  0  0  0  0  0
   -7.9864  -13.7567   32.6411 H   0  0  0  0  0  0  0  0  0  0  0  0
   -6.7554  -13.9617   30.2322 H   0  0  0  0  0  0  0  0  0  0  0  0
   -5.1570  -14.3852   30.6840 H   0  0  0  0  0  0  0  0  0  0  0  0
   -5.5733  -12.0847   32.8602 H   0  0  0  0  0  0  0  0  0  0  0  0
   -7.0129  -11.8156   32.1894 H   0  0  0  0  0  0  0  0  0  0  0  0
   -5.8623   -9.2395   31.0387 H   0  0  0  0  0  0  0  0  0  0  0  0
   -2.0450   -7.6860   33.6811 H   0  0  0  0  0  0  0  0  0  0  0  0
   -0.9688   -5.5373   33.1736 H   0  0  0  0  0  0  0  0  0  0  0  0
    0.5074   -4.5406   31.0498 H   0  0  0  0  0  0  0  0  0  0  0  0
    1.6466   -5.5228   29.0741 H   0  0  0  0  0  0  0  0  0  0  0  0
    1.0561   -7.7991   28.3765 H   0  0  0  0  0  0  0  0  0  0  0  0
   -0.7299   -9.0526   29.4550 H   0  0  0  0  0  0  0  0  0  0  0  0
   -9.1017  -17.9318   34.0672 H   0  0  0  0  0  0  0  0  0  0  0  0
   -8.7125  -20.1646   35.5922 H   0  0  0  0  0  0  0  0  0  0  0  0
   -6.7224  -21.3551   34.5340 H   0  0  0  0  0  0  0  0  0  0  0  0
  1  2  1  0
  2  3  1  0
  3  4  1  0
  4  5  1  0
  5  6  1  0
  6  7  2  0
  6  8  1  0
  8  9  2  0
  9 10  1  0
 10 11  1  0
 11 12  2  0
 12 13  1  0
 13 14  2  0
 14 15  1  0
 15 16  2  0
  2 17  1  0
 17 18  2  0
 17 19  1  0
 19 20  1  0
 20 21  2  0
 21 22  1  0
 22 23  1  0
 16  8  1  0
 23 19  2  0
 16 11  1  0
  1 24  1  0
  1 25  1  0
  1 26  1  0
  3 27  1  0
  3 28  1  0
  4 29  1  0
  4 30  1  0
  5 31  1  0
  9 32  1  0
 10 33  1  0
 12 34  1  0
 13 35  1  0
 14 36  1  0
 15 37  1  0
 20 38  1  0
 21 39  1  0
 22 40  1  0
M  END
>  <Energy>  (1095) 
894.01632669147943

>  <compound_id>  (1095) 
30258

>  <target_id>  (1095) 
1

>  <reference_id>  (1095) 
40

>  <inspiration_ids>  (1095) 
[40, 123]

>  <energy_score>  (1095) 
810.1006246693753

>  <distance_score>  (1095) 
4.945538294936373

>  <path>  (1095) 
/opt/xchem-fragalysis-2/maxwin/BulkDock/SCRATCH/511023/C30258-P40/C30258-P40.minimised.mol

>  <scratch_subdir>  (1095) 
/opt/xchem-fragalysis-2/maxwin/BulkDock/SCRATCH/511023/C30258-P40

>  <fragmenstein_runtime>  (1095) 
13.342802047729492

>  <fragmenstein_outcome>  (1095) 
too moved

>  <fragmenstein_mode>  (1095) 
expansion

>  <fragmenstein_error>  (1095) 


$$$$
C30258-P123
     RDKit          3D

 40 42  0  0  0  0  0  0  0  0999 V2000
   -7.3608  -15.2775   34.1540 C   0  0  0  0  0  0  0  0  0  0  0  0
   -6.6454  -16.2218   34.5990 N   0  0  0  0  0  0  0  0  0  0  0  0
   -5.3666  -15.0022   34.3989 C   0  0  0  0  0  0  0  0  0  0  0  0
   -4.0411  -13.7221   35.0747 C   0  0  0  0  0  0  0  0  0  0  0  0
   -3.7915  -11.7729   35.1855 N   0  0  0  0  0  0  0  0  0  0  0  0
   -2.5134  -10.8003   34.7009 C   0  0  0  0  0  0  0  0  0  0  0  0
   -1.4469  -11.0988   34.2633 O   0  0  0  0  0  0  0  0  0  0  0  0
   -2.6729   -9.3293   34.6623 C   0  0  0  0  0  0  0  0  0  0  0  0
   -3.1019   -8.4616   35.5908 C   0  0  0  0  0  0  0  0  0  0  0  0
   -2.2999   -7.3405   35.4567 N   0  0  0  0  0  0  0  0  0  0  0  0
   -1.8211   -7.2459   34.1808 C   0  0  0  0  0  0  0  0  0  0  0  0
   -1.1411   -6.2096   33.5256 C   0  0  0  0  0  0  0  0  0  0  0  0
   -0.7839   -6.4117   32.1944 C   0  0  0  0  0  0  0  0  0  0  0  0
   -1.0894   -7.6082   31.5626 C   0  0  0  0  0  0  0  0  0  0  0  0
   -1.7599   -8.6333   32.2554 C   0  0  0  0  0  0  0  0  0  0  0  0
   -2.1266   -8.4685   33.6043 C   0  0  0  0  0  0  0  0  0  0  0  0
   -6.9165  -17.3813   33.9021 C   0  0  0  0  0  0  0  0  0  0  0  0
   -6.4115  -17.8328   32.9166 O   0  0  0  0  0  0  0  0  0  0  0  0
   -8.0994  -17.8603   34.6842 C   0  0  0  0  0  0  0  0  0  0  0  0
   -8.2920  -17.7141   36.0994 C   0  0  0  0  0  0  0  0  0  0  0  0
   -9.5776  -17.2475   36.2834 C   0  0  0  0  0  0  0  0  0  0  0  0
  -10.1343  -17.2620   35.0536 N   0  0  0  0  0  0  0  0  0  0  0  0
   -9.2928  -17.6736   34.1116 N   0  0  0  0  0  0  0  0  0  0  0  0
   -7.1182  -14.2730   33.9238 H   0  0  0  0  0  0  0  0  0  0  0  0
   -7.9832  -15.6249   33.3039 H   0  0  0  0  0  0  0  0  0  0  0  0
   -7.8481  -15.3402   35.1543 H   0  0  0  0  0  0  0  0  0  0  0  0
   -5.2120  -15.1394   35.4818 H   0  0  0  0  0  0  0  0  0  0  0  0
   -5.0609  -15.5259   33.5014 H   0  0  0  0  0  0  0  0  0  0  0  0
   -3.2991  -14.0585   34.3560 H   0  0  0  0  0  0  0  0  0  0  0  0
   -3.8389  -14.0792   36.1000 H   0  0  0  0  0  0  0  0  0  0  0  0
   -4.5539  -11.2042   35.4743 H   0  0  0  0  0  0  0  0  0  0  0  0
   -3.6215   -8.7560   36.4840 H   0  0  0  0  0  0  0  0  0  0  0  0
   -2.1609   -6.6143   36.1509 H   0  0  0  0  0  0  0  0  0  0  0  0
   -0.9017   -5.2793   34.0316 H   0  0  0  0  0  0  0  0  0  0  0  0
   -0.2273   -5.6437   31.6636 H   0  0  0  0  0  0  0  0  0  0  0  0
   -0.7387   -7.7670   30.5457 H   0  0  0  0  0  0  0  0  0  0  0  0
   -1.9595   -9.5853   31.7775 H   0  0  0  0  0  0  0  0  0  0  0  0
   -7.5565  -17.7270   36.8733 H   0  0  0  0  0  0  0  0  0  0  0  0
  -10.1201  -16.9433   37.1661 H   0  0  0  0  0  0  0  0  0  0  0  0
  -11.0801  -17.0421   34.7514 H   0  0  0  0  0  0  0  0  0  0  0  0
  1  2  1  0
  2  3  1  0
  3  4  1  0
  4  5  1  0
  5  6  1  0
  6  7  2  0
  6  8  1  0
  8  9  2  0
  9 10  1  0
 10 11  1  0
 11 12  2  0
 12 13  1  0
 13 14  2  0
 14 15  1  0
 15 16  2  0
  2 17  1  0
 17 18  2  0
 17 19  1  0
 19 20  1  0
 20 21  2  0
 21 22  1  0
 22 23  1  0
 16  8  1  0
 23 19  2  0
 16 11  1  0
  1 24  1  0
  1 25  1  0
  1 26  1  0
  3 27  1  0
  3 28  1  0
  4 29  1  0
  4 30  1  0
  5 31  1  0
  9 32  1  0
 10 33  1  0
 12 34  1  0
 13 35  1  0
 14 36  1  0
 15 37  1  0
 20 38  1  0
 21 39  1  0
 22 40  1  0
M  END
>  <Energy>  (1096) 
481.68606061090776

>  <compound_id>  (1096) 
30258

>  <target_id>  (1096) 
1

>  <reference_id>  (1096) 
123

>  <inspiration_ids>  (1096) 
[40, 123]

>  <energy_score>  (1096) 
397.7703585888131

>  <distance_score>  (1096) 
6.739039714123179

>  <path>  (1096) 
/opt/xchem-fragalysis-2/maxwin/BulkDock/SCRATCH/511023/C30258-P123/C30258-P123.minimised.mol

>  <scratch_subdir>  (1096) 
/opt/xchem-fragalysis-2/maxwin/BulkDock/SCRATCH/511023/C30258-P123

>  <fragmenstein_runtime>  (1096) 
19.285743474960327

>  <fragmenstein_outcome>  (1096) 
too moved

>  <fragmenstein_mode>  (1096) 
expansion

>  <fragmenstein_error>  (1096) 


$$$$
C30259-P40
     RDKit          3D

 43 45  0  0  0  0  0  0  0  0999 V2000
   -1.2885   -7.0716   34.5975 C   0  0  0  0  0  0  0  0  0  0  0  0
   -1.0678   -7.2054   33.1187 C   0  0  0  0  0  0  0  0  0  0  0  0
   -0.3768   -6.2158   32.4298 C   0  0  0  0  0  0  0  0  0  0  0  0
   -0.0664   -6.3880   31.0899 C   0  0  0  0  0  0  0  0  0  0  0  0
   -0.3722   -7.6268   30.5128 C   0  0  0  0  0  0  0  0  0  0  0  0
   -0.0431   -8.0785   29.2755 N   0  0  0  0  0  0  0  0  0  0  0  0
   -0.4145   -9.3588   29.1915 C   0  0  0  0  0  0  0  0  0  0  0  0
   -1.1120   -9.8924   30.2187 C   0  0  0  0  0  0  0  0  0  0  0  0
   -1.2667  -11.4291   30.3237 C   0  0  0  0  0  0  0  0  0  0  0  0
   -0.4550  -11.8483   31.0535 O   0  0  0  0  0  0  0  0  0  0  0  0
   -2.5332  -12.5546   29.5517 N   0  0  0  0  0  0  0  0  0  0  0  0
   -2.9215  -14.5458   29.8366 C   0  0  0  0  0  0  0  0  0  0  0  0
   -4.6377  -15.4564   30.4951 C   0  0  0  0  0  0  0  0  0  0  0  0
   -5.6972  -16.0316   31.8743 N   0  0  0  0  0  0  0  0  0  0  0  0
   -6.5975  -14.6014   31.3989 C   0  0  0  0  0  0  0  0  0  0  0  0
   -6.8583  -17.5546   32.0435 C   0  0  0  0  0  0  0  0  0  0  0  0
   -7.0267  -18.2426   31.0654 O   0  0  0  0  0  0  0  0  0  0  0  0
   -7.6083  -18.2371   33.3078 C   0  0  0  0  0  0  0  0  0  0  0  0
   -7.2602  -19.6041   33.8449 C   0  0  0  0  0  0  0  0  0  0  0  0
   -8.1315  -19.8597   34.8790 C   0  0  0  0  0  0  0  0  0  0  0  0
   -9.0236  -18.8299   34.8646 N   0  0  0  0  0  0  0  0  0  0  0  0
   -8.7365  -17.8335   33.9980 N   0  0  0  0  0  0  0  0  0  0  0  0
   -1.0371   -8.6915   31.1595 C   0  0  0  0  0  0  0  0  0  0  0  0
   -1.4774   -8.3811   32.4533 C   0  0  0  0  0  0  0  0  0  0  0  0
   -1.3746   -6.0223   34.8941 H   0  0  0  0  0  0  0  0  0  0  0  0
   -2.2001   -7.5883   34.9100 H   0  0  0  0  0  0  0  0  0  0  0  0
   -0.4422   -7.5125   35.1345 H   0  0  0  0  0  0  0  0  0  0  0  0
   -0.0760   -5.3023   32.9395 H   0  0  0  0  0  0  0  0  0  0  0  0
    0.4679   -5.6156   30.5452 H   0  0  0  0  0  0  0  0  0  0  0  0
    0.4872   -7.5400   28.6040 H   0  0  0  0  0  0  0  0  0  0  0  0
   -0.2420  -10.0336   28.4345 H   0  0  0  0  0  0  0  0  0  0  0  0
   -3.0958  -12.0168   28.8856 H   0  0  0  0  0  0  0  0  0  0  0  0
   -2.5230  -14.9691   28.9008 H   0  0  0  0  0  0  0  0  0  0  0  0
   -2.3790  -14.9514   30.6999 H   0  0  0  0  0  0  0  0  0  0  0  0
   -4.9830  -14.4640   30.4946 H   0  0  0  0  0  0  0  0  0  0  0  0
   -5.0148  -16.1254   29.7184 H   0  0  0  0  0  0  0  0  0  0  0  0
   -6.5943  -14.3253   30.3384 H   0  0  0  0  0  0  0  0  0  0  0  0
   -7.6540  -14.6758   31.6963 H   0  0  0  0  0  0  0  0  0  0  0  0
   -6.2313  -13.6877   31.8632 H   0  0  0  0  0  0  0  0  0  0  0  0
   -6.4613  -20.2329   33.4774 H   0  0  0  0  0  0  0  0  0  0  0  0
   -8.2049  -20.6855   35.5687 H   0  0  0  0  0  0  0  0  0  0  0  0
   -9.8338  -18.6998   35.4603 H   0  0  0  0  0  0  0  0  0  0  0  0
   -2.1463   -9.0522   32.9623 H   0  0  0  0  0  0  0  0  0  0  0  0
  1  2  1  0
  2  3  2  0
  3  4  1  0
  4  5  2  0
  5  6  1  0
  6  7  1  0
  7  8  2  0
  8  9  1  0
  9 10  2  0
  9 11  1  0
 11 12  1  0
 12 13  1  0
 13 14  1  0
 14 15  1  0
 14 16  1  0
 16 17  2  0
 16 18  1  0
 18 19  1  0
 19 20  2  0
 20 21  1  0
 21 22  1  0
  8 23  1  0
 23 24  2  0
 24  2  1  0
 23  5  1  0
 22 18  2  0
  1 25  1  0
  1 26  1  0
  1 27  1  0
  3 28  1  0
  4 29  1  0
  6 30  1  0
  7 31  1  0
 11 32  1  0
 12 33  1  0
 12 34  1  0
 13 35  1  0
 13 36  1  0
 15 37  1  0
 15 38  1  0
 15 39  1  0
 19 40  1  0
 20 41  1  0
 21 42  1  0
 24 43  1  0
M  END
>  <Energy>  (1097) 
632.22958187366623

>  <compound_id>  (1097) 
30259

>  <target_id>  (1097) 
1

>  <reference_id>  (1097) 
40

>  <inspiration_ids>  (1097) 
[40, 123]

>  <energy_score>  (1097) 
540.5229318305651

>  <distance_score>  (1097) 
4.833317828748529

>  <path>  (1097) 
/opt/xchem-fragalysis-2/maxwin/BulkDock/SCRATCH/511023/C30259-P40/C30259-P40.minimised.mol

>  <scratch_subdir>  (1097) 
/opt/xchem-fragalysis-2/maxwin/BulkDock/SCRATCH/511023/C30259-P40

>  <fragmenstein_runtime>  (1097) 
20.633689641952515

>  <fragmenstein_outcome>  (1097) 
too moved

>  <fragmenstein_mode>  (1097) 
expansion

>  <fragmenstein_error>  (1097) 


$$$$
C30259-P123
     RDKit          3D

 43 45  0  0  0  0  0  0  0  0999 V2000
   -1.1872   -6.1113   35.0147 C   0  0  0  0  0  0  0  0  0  0  0  0
   -1.2174   -6.6236   33.6066 C   0  0  0  0  0  0  0  0  0  0  0  0
   -0.5123   -5.9370   32.6150 C   0  0  0  0  0  0  0  0  0  0  0  0
   -0.3021   -6.5076   31.3637 C   0  0  0  0  0  0  0  0  0  0  0  0
   -0.7959   -7.8007   31.1652 C   0  0  0  0  0  0  0  0  0  0  0  0
   -0.5198   -8.6891   30.1507 N   0  0  0  0  0  0  0  0  0  0  0  0
   -1.1642   -9.9112   30.3629 C   0  0  0  0  0  0  0  0  0  0  0  0
   -2.0570   -9.7223   31.4415 C   0  0  0  0  0  0  0  0  0  0  0  0
   -3.4540  -10.3254   31.6107 C   0  0  0  0  0  0  0  0  0  0  0  0
   -4.1638   -9.6730   32.3714 O   0  0  0  0  0  0  0  0  0  0  0  0
   -3.8700  -11.7145   30.6550 N   0  0  0  0  0  0  0  0  0  0  0  0
   -5.3742  -12.6649   30.5795 C   0  0  0  0  0  0  0  0  0  0  0  0
   -6.8719  -13.9240   31.2085 C   0  0  0  0  0  0  0  0  0  0  0  0
   -7.5564  -14.8570   32.8605 N   0  0  0  0  0  0  0  0  0  0  0  0
   -8.7259  -14.7815   32.2088 C   0  0  0  0  0  0  0  0  0  0  0  0
   -7.3235  -16.3006   33.3598 C   0  0  0  0  0  0  0  0  0  0  0  0
   -6.7589  -17.2291   32.8271 O   0  0  0  0  0  0  0  0  0  0  0  0
   -7.7336  -16.6842   34.7648 C   0  0  0  0  0  0  0  0  0  0  0  0
   -7.7405  -18.0670   35.1405 C   0  0  0  0  0  0  0  0  0  0  0  0
   -7.5920  -18.0979   36.5009 C   0  0  0  0  0  0  0  0  0  0  0  0
   -7.7294  -16.8142   36.8951 N   0  0  0  0  0  0  0  0  0  0  0  0
   -7.7411  -15.9375   35.8872 N   0  0  0  0  0  0  0  0  0  0  0  0
   -1.6091   -8.4760   32.0786 C   0  0  0  0  0  0  0  0  0  0  0  0
   -1.8335   -7.8571   33.3205 C   0  0  0  0  0  0  0  0  0  0  0  0
   -0.2903   -6.4843   35.5179 H   0  0  0  0  0  0  0  0  0  0  0  0
   -1.1626   -5.0178   35.0436 H   0  0  0  0  0  0  0  0  0  0  0  0
   -2.0611   -6.4481   35.5771 H   0  0  0  0  0  0  0  0  0  0  0  0
   -0.0380   -4.9867   32.8480 H   0  0  0  0  0  0  0  0  0  0  0  0
    0.3355   -6.0222   30.6338 H   0  0  0  0  0  0  0  0  0  0  0  0
    0.1977   -8.5213   29.4554 H   0  0  0  0  0  0  0  0  0  0  0  0
   -1.0801  -10.6535   29.5997 H   0  0  0  0  0  0  0  0  0  0  0  0
   -3.0823  -11.9740   30.0671 H   0  0  0  0  0  0  0  0  0  0  0  0
   -5.5459  -12.3592   29.5346 H   0  0  0  0  0  0  0  0  0  0  0  0
   -4.8513  -13.4953   30.1398 H   0  0  0  0  0  0  0  0  0  0  0  0
   -7.4634  -13.9031   30.3323 H   0  0  0  0  0  0  0  0  0  0  0  0
   -6.2631  -14.7872   30.8778 H   0  0  0  0  0  0  0  0  0  0  0  0
   -8.7548  -14.5205   31.1947 H   0  0  0  0  0  0  0  0  0  0  0  0
   -9.3559  -15.5832   32.6407 H   0  0  0  0  0  0  0  0  0  0  0  0
   -9.2890  -13.9825   32.6391 H   0  0  0  0  0  0  0  0  0  0  0  0
   -7.6561  -18.8994   34.4535 H   0  0  0  0  0  0  0  0  0  0  0  0
   -7.4122  -18.9020   37.1980 H   0  0  0  0  0  0  0  0  0  0  0  0
   -7.7289  -16.4504   37.8405 H   0  0  0  0  0  0  0  0  0  0  0  0
   -2.4002   -8.3839   34.0834 H   0  0  0  0  0  0  0  0  0  0  0  0
  1  2  1  0
  2  3  2  0
  3  4  1  0
  4  5  2  0
  5  6  1  0
  6  7  1  0
  7  8  2  0
  8  9  1  0
  9 10  2  0
  9 11  1  0
 11 12  1  0
 12 13  1  0
 13 14  1  0
 14 15  1  0
 14 16  1  0
 16 17  2  0
 16 18  1  0
 18 19  1  0
 19 20  2  0
 20 21  1  0
 21 22  1  0
  8 23  1  0
 23 24  2  0
 24  2  1  0
 23  5  1  0
 22 18  2  0
  1 25  1  0
  1 26  1  0
  1 27  1  0
  3 28  1  0
  4 29  1  0
  6 30  1  0
  7 31  1  0
 11 32  1  0
 12 33  1  0
 12 34  1  0
 13 35  1  0
 13 36  1  0
 15 37  1  0
 15 38  1  0
 15 39  1  0
 19 40  1  0
 20 41  1  0
 21 42  1  0
 24 43  1  0
M  END
>  <Energy>  (1098) 
480.49640571417694

>  <compound_id>  (1098) 
30259

>  <target_id>  (1098) 
1

>  <reference_id>  (1098) 
123

>  <inspiration_ids>  (1098) 
[40, 123]

>  <energy_score>  (1098) 
388.7897556710864

>  <distance_score>  (1098) 
6.03447155858576

>  <path>  (1098) 
/opt/xchem-fragalysis-2/maxwin/BulkDock/SCRATCH/511023/C30259-P123/C30259-P123.minimised.mol

>  <scratch_subdir>  (1098) 
/opt/xchem-fragalysis-2/maxwin/BulkDock/SCRATCH/511023/C30259-P123

>  <fragmenstein_runtime>  (1098) 
21.304210424423218

>  <fragmenstein_outcome>  (1098) 
too moved

>  <fragmenstein_mode>  (1098) 
expansion

>  <fragmenstein_error>  (1098) 


$$$$
C30260-P40
     RDKit          3D

 43 45  0  0  0  0  0  0  0  0999 V2000
   -4.7363  -15.3084   31.7008 C   0  0  0  0  0  0  0  0  0  0  0  0
   -5.8506  -16.0603   31.4139 N   0  0  0  0  0  0  0  0  0  0  0  0
   -6.2514  -14.0997   31.3381 C   0  0  0  0  0  0  0  0  0  0  0  0
   -6.3141  -12.2226   32.3497 C   0  0  0  0  0  0  0  0  0  0  0  0
   -5.5703  -10.9199   33.6794 N   0  0  0  0  0  0  0  0  0  0  0  0
   -4.7360   -9.2681   33.4598 C   0  0  0  0  0  0  0  0  0  0  0  0
   -4.5803   -8.6241   32.4145 O   0  0  0  0  0  0  0  0  0  0  0  0
   -4.0310   -8.7223   34.7377 C   0  0  0  0  0  0  0  0  0  0  0  0
   -3.8495   -9.4122   35.9165 C   0  0  0  0  0  0  0  0  0  0  0  0
   -2.4886   -9.4226   36.2698 N   0  0  0  0  0  0  0  0  0  0  0  0
   -1.8071  -10.4111   37.1078 C   0  0  0  0  0  0  0  0  0  0  0  0
   -1.7832   -8.3857   35.6331 C   0  0  0  0  0  0  0  0  0  0  0  0
   -0.4708   -7.8900   35.7993 C   0  0  0  0  0  0  0  0  0  0  0  0
    0.1388   -7.2277   34.7282 C   0  0  0  0  0  0  0  0  0  0  0  0
   -0.4954   -7.1542   33.5013 C   0  0  0  0  0  0  0  0  0  0  0  0
   -1.7950   -7.6520   33.3694 C   0  0  0  0  0  0  0  0  0  0  0  0
   -2.5479   -8.1449   34.5027 C   0  0  0  0  0  0  0  0  0  0  0  0
   -6.7134  -17.5200   32.4296 C   0  0  0  0  0  0  0  0  0  0  0  0
   -7.5085  -17.0931   33.1135 O   0  0  0  0  0  0  0  0  0  0  0  0
   -6.5686  -19.2937   32.8106 C   0  0  0  0  0  0  0  0  0  0  0  0
   -7.4861  -19.7421   33.9778 C   0  0  0  0  0  0  0  0  0  0  0  0
   -7.0208  -20.9065   34.5179 C   0  0  0  0  0  0  0  0  0  0  0  0
   -5.8878  -21.1437   33.8336 N   0  0  0  0  0  0  0  0  0  0  0  0
   -5.5354  -20.1929   32.9528 N   0  0  0  0  0  0  0  0  0  0  0  0
   -4.5580  -15.0617   30.6537 H   0  0  0  0  0  0  0  0  0  0  0  0
   -3.6425  -15.0405   31.8328 H   0  0  0  0  0  0  0  0  0  0  0  0
   -4.1324  -16.2273   31.6983 H   0  0  0  0  0  0  0  0  0  0  0  0
   -6.1087  -13.8697   30.2765 H   0  0  0  0  0  0  0  0  0  0  0  0
   -7.3110  -14.2984   31.4101 H   0  0  0  0  0  0  0  0  0  0  0  0
   -6.1870  -11.6126   31.4962 H   0  0  0  0  0  0  0  0  0  0  0  0
   -7.3361  -12.2181   32.7301 H   0  0  0  0  0  0  0  0  0  0  0  0
   -5.6227  -11.1538   34.6687 H   0  0  0  0  0  0  0  0  0  0  0  0
   -4.5856   -9.9369   36.4903 H   0  0  0  0  0  0  0  0  0  0  0  0
   -2.4972  -10.8060   37.8494 H   0  0  0  0  0  0  0  0  0  0  0  0
   -0.9496   -9.9590   37.6103 H   0  0  0  0  0  0  0  0  0  0  0  0
   -1.4231  -11.2245   36.5005 H   0  0  0  0  0  0  0  0  0  0  0  0
    0.0895   -8.0811   36.7086 H   0  0  0  0  0  0  0  0  0  0  0  0
    1.1455   -6.8359   34.8447 H   0  0  0  0  0  0  0  0  0  0  0  0
    0.0085   -6.7185   32.6449 H   0  0  0  0  0  0  0  0  0  0  0  0
   -2.2398   -7.6470   32.3779 H   0  0  0  0  0  0  0  0  0  0  0  0
   -8.3763  -19.2020   34.2803 H   0  0  0  0  0  0  0  0  0  0  0  0
   -7.3741  -21.5453   35.3097 H   0  0  0  0  0  0  0  0  0  0  0  0
   -5.2373  -21.9098   33.9640 H   0  0  0  0  0  0  0  0  0  0  0  0
  1  2  1  0
  2  3  1  0
  3  4  1  0
  4  5  1  0
  5  6  1  0
  6  7  2  0
  6  8  1  0
  8  9  2  0
  9 10  1  0
 10 11  1  0
 10 12  1  0
 12 13  2  0
 13 14  1  0
 14 15  2  0
 15 16  1  0
 16 17  2  0
  2 18  1  0
 18 19  2  0
 18 20  1  0
 20 21  1  0
 21 22  2  0
 22 23  1  0
 23 24  1  0
 17  8  1  0
 24 20  2  0
 17 12  1  0
  1 25  1  0
  1 26  1  0
  1 27  1  0
  3 28  1  0
  3 29  1  0
  4 30  1  0
  4 31  1  0
  5 32  1  0
  9 33  1  0
 11 34  1  0
 11 35  1  0
 11 36  1  0
 13 37  1  0
 14 38  1  0
 15 39  1  0
 16 40  1  0
 21 41  1  0
 22 42  1  0
 23 43  1  0
M  END
>  <Energy>  (1099) 
851.79774111425922

>  <compound_id>  (1099) 
30260

>  <target_id>  (1099) 
1

>  <reference_id>  (1099) 
40

>  <inspiration_ids>  (1099) 
[40, 123]

>  <energy_score>  (1099) 
769.6959740381471

>  <distance_score>  (1099) 
6.588948834848178

>  <path>  (1099) 
/opt/xchem-fragalysis-2/maxwin/BulkDock/SCRATCH/511023/C30260-P40/C30260-P40.minimised.mol

>  <scratch_subdir>  (1099) 
/opt/xchem-fragalysis-2/maxwin/BulkDock/SCRATCH/511023/C30260-P40

>  <fragmenstein_runtime>  (1099) 
17.192840576171875

>  <fragmenstein_outcome>  (1099) 
too moved

>  <fragmenstein_mode>  (1099) 
expansion

>  <fragmenstein_error>  (1099) 


$$$$
C30260-P123
     RDKit          3D

 43 45  0  0  0  0  0  0  0  0999 V2000
   -8.8425  -14.3791   32.4148 C   0  0  0  0  0  0  0  0  0  0  0  0
   -7.6361  -15.0627   32.3785 N   0  0  0  0  0  0  0  0  0  0  0  0
   -6.9809  -13.3633   31.6107 C   0  0  0  0  0  0  0  0  0  0  0  0
   -5.7633  -11.6882   31.4921 C   0  0  0  0  0  0  0  0  0  0  0  0
   -4.6798  -10.3060   32.1568 N   0  0  0  0  0  0  0  0  0  0  0  0
   -3.0974   -9.8768   31.7763 C   0  0  0  0  0  0  0  0  0  0  0  0
   -2.3386  -10.4600   31.0417 O   0  0  0  0  0  0  0  0  0  0  0  0
   -2.4604   -8.5849   32.2395 C   0  0  0  0  0  0  0  0  0  0  0  0
   -1.4737   -8.0170   31.3858 C   0  0  0  0  0  0  0  0  0  0  0  0
   -1.0391   -6.8184   31.8185 N   0  0  0  0  0  0  0  0  0  0  0  0
   -0.1499   -5.9342   31.1004 C   0  0  0  0  0  0  0  0  0  0  0  0
   -1.3372   -6.7638   33.1345 C   0  0  0  0  0  0  0  0  0  0  0  0
   -0.8540   -5.8556   34.0676 C   0  0  0  0  0  0  0  0  0  0  0  0
   -1.1474   -6.1427   35.3705 C   0  0  0  0  0  0  0  0  0  0  0  0
   -1.8858   -7.2800   35.6655 C   0  0  0  0  0  0  0  0  0  0  0  0
   -2.4492   -8.1426   34.7409 C   0  0  0  0  0  0  0  0  0  0  0  0
   -2.1646   -7.8814   33.4226 C   0  0  0  0  0  0  0  0  0  0  0  0
   -7.3738  -15.7050   33.7138 C   0  0  0  0  0  0  0  0  0  0  0  0
   -6.7882  -15.2996   34.6617 O   0  0  0  0  0  0  0  0  0  0  0  0
   -8.0107  -17.0218   34.0139 C   0  0  0  0  0  0  0  0  0  0  0  0
   -9.2618  -17.0099   34.7174 C   0  0  0  0  0  0  0  0  0  0  0  0
   -8.8911  -17.4255   35.9759 C   0  0  0  0  0  0  0  0  0  0  0  0
   -7.7043  -18.0688   35.7988 N   0  0  0  0  0  0  0  0  0  0  0  0
   -7.3072  -18.0482   34.5199 N   0  0  0  0  0  0  0  0  0  0  0  0
   -9.8156  -14.6559   32.9319 H   0  0  0  0  0  0  0  0  0  0  0  0
   -9.2062  -15.4067   32.5364 H   0  0  0  0  0  0  0  0  0  0  0  0
   -9.0281  -13.4086   32.9257 H   0  0  0  0  0  0  0  0  0  0  0  0
   -6.2069  -13.8692   30.9444 H   0  0  0  0  0  0  0  0  0  0  0  0
   -7.3458  -13.7200   30.6333 H   0  0  0  0  0  0  0  0  0  0  0  0
   -5.0542  -12.0578   30.7216 H   0  0  0  0  0  0  0  0  0  0  0  0
   -6.3003  -10.8906   31.0199 H   0  0  0  0  0  0  0  0  0  0  0  0
   -5.0329   -9.6795   32.8571 H   0  0  0  0  0  0  0  0  0  0  0  0
   -0.9884   -8.4008   30.4947 H   0  0  0  0  0  0  0  0  0  0  0  0
   -0.1492   -6.2027   30.0407 H   0  0  0  0  0  0  0  0  0  0  0  0
    0.8567   -6.0254   31.5127 H   0  0  0  0  0  0  0  0  0  0  0  0
   -0.5188   -4.9109   31.2105 H   0  0  0  0  0  0  0  0  0  0  0  0
   -0.2388   -5.0057   33.8010 H   0  0  0  0  0  0  0  0  0  0  0  0
   -0.8013   -5.4892   36.1621 H   0  0  0  0  0  0  0  0  0  0  0  0
   -2.0281   -7.5531   36.6863 H   0  0  0  0  0  0  0  0  0  0  0  0
   -3.0248   -9.0028   35.0657 H   0  0  0  0  0  0  0  0  0  0  0  0
  -10.0996  -16.3541   34.5390 H   0  0  0  0  0  0  0  0  0  0  0  0
   -9.3400  -17.2946   36.9466 H   0  0  0  0  0  0  0  0  0  0  0  0
   -7.0846  -18.4824   36.4939 H   0  0  0  0  0  0  0  0  0  0  0  0
  1  2  1  0
  2  3  1  0
  3  4  1  0
  4  5  1  0
  5  6  1  0
  6  7  2  0
  6  8  1  0
  8  9  2  0
  9 10  1  0
 10 11  1  0
 10 12  1  0
 12 13  2  0
 13 14  1  0
 14 15  2  0
 15 16  1  0
 16 17  2  0
  2 18  1  0
 18 19  2  0
 18 20  1  0
 20 21  1  0
 21 22  2  0
 22 23  1  0
 23 24  1  0
 17  8  1  0
 24 20  2  0
 17 12  1  0
  1 25  1  0
  1 26  1  0
  1 27  1  0
  3 28  1  0
  3 29  1  0
  4 30  1  0
  4 31  1  0
  5 32  1  0
  9 33  1  0
 11 34  1  0
 11 35  1  0
 11 36  1  0
 13 37  1  0
 14 38  1  0
 15 39  1  0
 16 40  1  0
 21 41  1  0
 22 42  1  0
 23 43  1  0
M  END
>  <Energy>  (1100) 
622.48112428426793

>  <compound_id>  (1100) 
30260

>  <target_id>  (1100) 
1

>  <reference_id>  (1100) 
123

>  <inspiration_ids>  (1100) 
[40, 123]

>  <energy_score>  (1100) 
540.3793572081602

>  <distance_score>  (1100) 
6.920777676382277

>  <path>  (1100) 
/opt/xchem-fragalysis-2/maxwin/BulkDock/SCRATCH/511023/C30260-P123/C30260-P123.minimised.mol

>  <scratch_subdir>  (1100) 
/opt/xchem-fragalysis-2/maxwin/BulkDock/SCRATCH/511023/C30260-P123

>  <fragmenstein_runtime>  (1100) 
20.762686014175415

>  <fragmenstein_outcome>  (1100) 
too moved

>  <fragmenstein_mode>  (1100) 
expansion

>  <fragmenstein_error>  (1100) 


$$$$
C30261-P40
     RDKit          3D

 40 42  0  0  0  0  0  0  0  0999 V2000
   -6.5191  -13.5301   31.7670 C   0  0  0  0  0  0  0  0  0  0  0  0
   -7.2954  -13.1858   33.0977 N   0  0  0  0  0  0  0  0  0  0  0  0
   -6.6708  -11.7578   32.8228 C   0  0  0  0  0  0  0  0  0  0  0  0
   -5.7184  -10.6795   34.1990 C   0  0  0  0  0  0  0  0  0  0  0  0
   -4.1248  -10.0686   34.6689 N   0  0  0  0  0  0  0  0  0  0  0  0
   -3.7438   -8.8531   35.2098 C   0  0  0  0  0  0  0  0  0  0  0  0
   -4.3866   -7.9528   35.5696 O   0  0  0  0  0  0  0  0  0  0  0  0
   -2.2698   -8.4976   35.2825 C   0  0  0  0  0  0  0  0  0  0  0  0
   -1.4185   -8.5534   36.3764 C   0  0  0  0  0  0  0  0  0  0  0  0
   -0.2767   -7.8461   36.0955 N   0  0  0  0  0  0  0  0  0  0  0  0
   -0.2494   -7.4364   34.7808 C   0  0  0  0  0  0  0  0  0  0  0  0
    0.7325   -6.7187   34.0744 C   0  0  0  0  0  0  0  0  0  0  0  0
    0.5262   -6.4811   32.7134 C   0  0  0  0  0  0  0  0  0  0  0  0
   -0.5934   -6.9921   32.0819 C   0  0  0  0  0  0  0  0  0  0  0  0
   -0.7254   -6.8257   30.7542 F   0  0  0  0  0  0  0  0  0  0  0  0
   -1.5702   -7.6906   32.7999 C   0  0  0  0  0  0  0  0  0  0  0  0
   -1.4452   -7.8725   34.2059 C   0  0  0  0  0  0  0  0  0  0  0  0
   -8.8812  -13.7898   33.0080 C   0  0  0  0  0  0  0  0  0  0  0  0
   -9.6371  -13.0633   32.5904 O   0  0  0  0  0  0  0  0  0  0  0  0
   -9.7366  -15.3167   33.5735 C   0  0  0  0  0  0  0  0  0  0  0  0
  -11.1761  -15.3924   33.7529 C   0  0  0  0  0  0  0  0  0  0  0  0
  -11.5491  -16.3022   34.7402 C   0  0  0  0  0  0  0  0  0  0  0  0
  -10.4114  -17.0085   34.8992 N   0  0  0  0  0  0  0  0  0  0  0  0
   -9.3877  -16.5146   34.1986 N   0  0  0  0  0  0  0  0  0  0  0  0
   -7.2109  -14.2096   31.2599 H   0  0  0  0  0  0  0  0  0  0  0  0
   -5.8149  -14.3762   31.8067 H   0  0  0  0  0  0  0  0  0  0  0  0
   -6.3328  -12.8990   30.9833 H   0  0  0  0  0  0  0  0  0  0  0  0
   -5.9720  -11.6041   32.0314 H   0  0  0  0  0  0  0  0  0  0  0  0
   -7.6616  -11.4229   32.6061 H   0  0  0  0  0  0  0  0  0  0  0  0
   -6.1836  -10.6483   35.1926 H   0  0  0  0  0  0  0  0  0  0  0  0
   -5.6838   -9.8303   33.5882 H   0  0  0  0  0  0  0  0  0  0  0  0
   -3.2880  -10.6523   34.5520 H   0  0  0  0  0  0  0  0  0  0  0  0
   -1.5702   -8.9575   37.3655 H   0  0  0  0  0  0  0  0  0  0  0  0
    0.4522   -7.6561   36.7671 H   0  0  0  0  0  0  0  0  0  0  0  0
    1.6219   -6.3472   34.5740 H   0  0  0  0  0  0  0  0  0  0  0  0
    1.2540   -5.9149   32.1416 H   0  0  0  0  0  0  0  0  0  0  0  0
   -2.4142   -8.1140   32.2686 H   0  0  0  0  0  0  0  0  0  0  0  0
  -11.8947  -14.9917   33.0453 H   0  0  0  0  0  0  0  0  0  0  0  0
  -12.5001  -16.6331   35.1258 H   0  0  0  0  0  0  0  0  0  0  0  0
  -10.2554  -17.8346   35.4637 H   0  0  0  0  0  0  0  0  0  0  0  0
  1  2  1  0
  2  3  1  0
  3  4  1  0
  4  5  1  0
  5  6  1  0
  6  7  2  0
  6  8  1  0
  8  9  2  0
  9 10  1  0
 10 11  1  0
 11 12  2  0
 12 13  1  0
 13 14  2  0
 14 15  1  0
 14 16  1  0
 16 17  2  0
  2 18  1  0
 18 19  2  0
 18 20  1  0
 20 21  1  0
 21 22  2  0
 22 23  1  0
 23 24  1  0
 17  8  1  0
 24 20  2  0
 17 11  1  0
  1 25  1  0
  1 26  1  0
  1 27  1  0
  3 28  1  0
  3 29  1  0
  4 30  1  0
  4 31  1  0
  5 32  1  0
  9 33  1  0
 10 34  1  0
 12 35  1  0
 13 36  1  0
 16 37  1  0
 21 38  1  0
 22 39  1  0
 23 40  1  0
M  END
>  <Energy>  (1101) 
412.34373754988792

>  <compound_id>  (1101) 
30261

>  <target_id>  (1101) 
1

>  <reference_id>  (1101) 
40

>  <inspiration_ids>  (1101) 
[40, 123]

>  <energy_score>  (1101) 
325.5435785757095

>  <distance_score>  (1101) 
6.765618486810238

>  <path>  (1101) 
/opt/xchem-fragalysis-2/maxwin/BulkDock/SCRATCH/511023/C30261-P40/C30261-P40.minimised.mol

>  <scratch_subdir>  (1101) 
/opt/xchem-fragalysis-2/maxwin/BulkDock/SCRATCH/511023/C30261-P40

>  <fragmenstein_runtime>  (1101) 
15.678193807601929

>  <fragmenstein_outcome>  (1101) 
too moved

>  <fragmenstein_mode>  (1101) 
expansion

>  <fragmenstein_error>  (1101) 


$$$$
C30261-P123
     RDKit          3D

 40 42  0  0  0  0  0  0  0  0999 V2000
   -6.3898  -16.4076   32.6608 C   0  0  0  0  0  0  0  0  0  0  0  0
   -7.3489  -15.5715   33.4702 N   0  0  0  0  0  0  0  0  0  0  0  0
   -7.4620  -14.5408   31.8446 C   0  0  0  0  0  0  0  0  0  0  0  0
   -6.1809  -13.5959   30.6299 C   0  0  0  0  0  0  0  0  0  0  0  0
   -5.3484  -11.9676   31.1732 N   0  0  0  0  0  0  0  0  0  0  0  0
   -3.7632  -11.3419   30.8557 C   0  0  0  0  0  0  0  0  0  0  0  0
   -2.8967  -11.8045   30.1288 O   0  0  0  0  0  0  0  0  0  0  0  0
   -3.1939   -9.7950   31.8653 C   0  0  0  0  0  0  0  0  0  0  0  0
   -2.2775   -9.7966   32.9714 C   0  0  0  0  0  0  0  0  0  0  0  0
   -1.2114   -8.9677   32.6485 N   0  0  0  0  0  0  0  0  0  0  0  0
   -1.3448   -8.5990   31.2849 C   0  0  0  0  0  0  0  0  0  0  0  0
   -0.6318   -7.6773   30.4949 C   0  0  0  0  0  0  0  0  0  0  0  0
   -0.5449   -6.3728   30.9257 C   0  0  0  0  0  0  0  0  0  0  0  0
   -1.3281   -6.0575   31.9937 C   0  0  0  0  0  0  0  0  0  0  0  0
   -1.1548   -4.8841   32.6058 F   0  0  0  0  0  0  0  0  0  0  0  0
   -2.3193   -6.9849   32.4238 C   0  0  0  0  0  0  0  0  0  0  0  0
   -2.6511   -8.2564   31.6564 C   0  0  0  0  0  0  0  0  0  0  0  0
   -8.3179  -16.4251   34.0972 C   0  0  0  0  0  0  0  0  0  0  0  0
   -9.3882  -16.7844   33.7253 O   0  0  0  0  0  0  0  0  0  0  0  0
   -7.9305  -17.0474   35.3347 C   0  0  0  0  0  0  0  0  0  0  0  0
   -8.3694  -16.6749   36.6073 C   0  0  0  0  0  0  0  0  0  0  0  0
   -8.1219  -17.7237   37.4297 C   0  0  0  0  0  0  0  0  0  0  0  0
   -7.5690  -18.6664   36.6112 N   0  0  0  0  0  0  0  0  0  0  0  0
   -7.4508  -18.2970   35.3347 N   0  0  0  0  0  0  0  0  0  0  0  0
   -6.7429  -17.4488   32.6109 H   0  0  0  0  0  0  0  0  0  0  0  0
   -5.5810  -16.5100   33.3300 H   0  0  0  0  0  0  0  0  0  0  0  0
   -5.8374  -16.1645   31.7652 H   0  0  0  0  0  0  0  0  0  0  0  0
   -8.4862  -14.6043   31.5455 H   0  0  0  0  0  0  0  0  0  0  0  0
   -7.6168  -13.7077   32.5493 H   0  0  0  0  0  0  0  0  0  0  0  0
   -6.6088  -13.5714   29.6228 H   0  0  0  0  0  0  0  0  0  0  0  0
   -5.4657  -14.3042   30.2967 H   0  0  0  0  0  0  0  0  0  0  0  0
   -5.8597  -11.3169   31.7526 H   0  0  0  0  0  0  0  0  0  0  0  0
   -2.0971  -10.4092   33.8464 H   0  0  0  0  0  0  0  0  0  0  0  0
   -0.4382   -8.6479   33.2233 H   0  0  0  0  0  0  0  0  0  0  0  0
   -0.2938   -7.9632   29.5062 H   0  0  0  0  0  0  0  0  0  0  0  0
    0.0943   -5.6443   30.4462 H   0  0  0  0  0  0  0  0  0  0  0  0
   -2.5688   -6.9008   33.4818 H   0  0  0  0  0  0  0  0  0  0  0  0
   -8.8164  -15.7607   36.8804 H   0  0  0  0  0  0  0  0  0  0  0  0
   -8.2518  -17.8867   38.4882 H   0  0  0  0  0  0  0  0  0  0  0  0
   -7.1857  -19.5565   36.8969 H   0  0  0  0  0  0  0  0  0  0  0  0
  1  2  1  0
  2  3  1  0
  3  4  1  0
  4  5  1  0
  5  6  1  0
  6  7  2  0
  6  8  1  0
  8  9  2  0
  9 10  1  0
 10 11  1  0
 11 12  2  0
 12 13  1  0
 13 14  2  0
 14 15  1  0
 14 16  1  0
 16 17  2  0
  2 18  1  0
 18 19  2  0
 18 20  1  0
 20 21  1  0
 21 22  2  0
 22 23  1  0
 23 24  1  0
 17  8  1  0
 24 20  2  0
 17 11  1  0
  1 25  1  0
  1 26  1  0
  1 27  1  0
  3 28  1  0
  3 29  1  0
  4 30  1  0
  4 31  1  0
  5 32  1  0
  9 33  1  0
 10 34  1  0
 12 35  1  0
 13 36  1  0
 16 37  1  0
 21 38  1  0
 22 39  1  0
 23 40  1  0
M  END
>  <Energy>  (1102) 
586.6116358630203

>  <compound_id>  (1102) 
30261

>  <target_id>  (1102) 
1

>  <reference_id>  (1102) 
123

>  <inspiration_ids>  (1102) 
[40, 123]

>  <energy_score>  (1102) 
499.81147688885073

>  <distance_score>  (1102) 
6.7264025665587255

>  <path>  (1102) 
/opt/xchem-fragalysis-2/maxwin/BulkDock/SCRATCH/511023/C30261-P123/C30261-P123.minimised.mol

>  <scratch_subdir>  (1102) 
/opt/xchem-fragalysis-2/maxwin/BulkDock/SCRATCH/511023/C30261-P123

>  <fragmenstein_runtime>  (1102) 
20.267406940460205

>  <fragmenstein_outcome>  (1102) 
too moved

>  <fragmenstein_mode>  (1102) 
expansion

>  <fragmenstein_error>  (1102) 


$$$$
C30262-P40
     RDKit          3D

 46 48  0  0  0  0  0  0  0  0999 V2000
   -1.1413   -7.7214   31.7797 C   0  0  0  0  0  0  0  0  0  0  0  0
   -1.2221   -7.2491   33.2204 C   0  0  0  0  0  0  0  0  0  0  0  0
   -2.1047   -7.9971   34.1140 N   0  0  0  0  0  0  0  0  0  0  0  0
   -3.1572   -8.8285   33.7314 C   0  0  0  0  0  0  0  0  0  0  0  0
   -3.8890   -9.4083   34.7891 C   0  0  0  0  0  0  0  0  0  0  0  0
   -5.3648  -10.4375   34.7572 C   0  0  0  0  0  0  0  0  0  0  0  0
   -5.7997  -10.5580   35.8740 O   0  0  0  0  0  0  0  0  0  0  0  0
   -5.9999  -11.2786   33.2813 N   0  0  0  0  0  0  0  0  0  0  0  0
   -7.4633  -12.4929   33.0655 C   0  0  0  0  0  0  0  0  0  0  0  0
   -8.7029  -14.1348   32.8768 C   0  0  0  0  0  0  0  0  0  0  0  0
   -9.4667  -15.8790   33.3144 N   0  0  0  0  0  0  0  0  0  0  0  0
  -10.5955  -15.1379   33.5074 C   0  0  0  0  0  0  0  0  0  0  0  0
   -9.2312  -16.8050   34.5467 C   0  0  0  0  0  0  0  0  0  0  0  0
   -8.5958  -16.6154   35.5556 O   0  0  0  0  0  0  0  0  0  0  0  0
   -9.8179  -18.1254   34.5766 C   0  0  0  0  0  0  0  0  0  0  0  0
   -8.8803  -19.1848   34.4867 C   0  0  0  0  0  0  0  0  0  0  0  0
   -8.9500  -19.7865   35.7059 C   0  0  0  0  0  0  0  0  0  0  0  0
  -10.0875  -19.3182   36.2944 N   0  0  0  0  0  0  0  0  0  0  0  0
  -10.7294  -18.4069   35.5420 N   0  0  0  0  0  0  0  0  0  0  0  0
   -2.7427   -9.2834   35.8196 C   0  0  0  0  0  0  0  0  0  0  0  0
   -2.1861  -10.1580   36.8107 C   0  0  0  0  0  0  0  0  0  0  0  0
   -0.8453  -10.0619   37.2647 C   0  0  0  0  0  0  0  0  0  0  0  0
   -0.0552   -8.9782   36.9168 C   0  0  0  0  0  0  0  0  0  0  0  0
   -0.5521   -8.0160   36.0491 C   0  0  0  0  0  0  0  0  0  0  0  0
   -1.7828   -8.2900   35.4071 C   0  0  0  0  0  0  0  0  0  0  0  0
   -0.9620   -8.7976   31.7202 H   0  0  0  0  0  0  0  0  0  0  0  0
   -2.0626   -7.5000   31.2435 H   0  0  0  0  0  0  0  0  0  0  0  0
   -0.3285   -7.2071   31.2569 H   0  0  0  0  0  0  0  0  0  0  0  0
   -1.5326   -6.2019   33.2716 H   0  0  0  0  0  0  0  0  0  0  0  0
   -0.2045   -7.3064   33.6158 H   0  0  0  0  0  0  0  0  0  0  0  0
   -3.3377   -8.8190   32.6640 H   0  0  0  0  0  0  0  0  0  0  0  0
   -5.5121  -10.9407   32.4649 H   0  0  0  0  0  0  0  0  0  0  0  0
   -8.1424  -11.7614   32.6623 H   0  0  0  0  0  0  0  0  0  0  0  0
   -6.8405  -12.8701   32.2347 H   0  0  0  0  0  0  0  0  0  0  0  0
   -9.5191  -13.5047   32.6710 H   0  0  0  0  0  0  0  0  0  0  0  0
   -8.2689  -14.5608   31.9668 H   0  0  0  0  0  0  0  0  0  0  0  0
  -11.2066  -15.6284   34.2886 H   0  0  0  0  0  0  0  0  0  0  0  0
  -11.3282  -15.0588   32.7192 H   0  0  0  0  0  0  0  0  0  0  0  0
  -10.2364  -14.3286   33.9619 H   0  0  0  0  0  0  0  0  0  0  0  0
   -7.9894  -19.2276   33.8815 H   0  0  0  0  0  0  0  0  0  0  0  0
   -8.2463  -20.4762   36.1372 H   0  0  0  0  0  0  0  0  0  0  0  0
  -10.4826  -19.5457   37.2043 H   0  0  0  0  0  0  0  0  0  0  0  0
   -2.7454  -10.9692   37.2178 H   0  0  0  0  0  0  0  0  0  0  0  0
   -0.4676  -10.8111   37.9567 H   0  0  0  0  0  0  0  0  0  0  0  0
    0.9432   -8.8784   37.3322 H   0  0  0  0  0  0  0  0  0  0  0  0
    0.0977   -7.2094   35.7268 H   0  0  0  0  0  0  0  0  0  0  0  0
  1  2  1  0
  2  3  1  0
  3  4  1  0
  4  5  2  0
  5  6  1  0
  6  7  2  0
  6  8  1  0
  8  9  1  0
  9 10  1  0
 10 11  1  0
 11 12  1  0
 11 13  1  0
 13 14  2  0
 13 15  1  0
 15 16  1  0
 16 17  2  0
 17 18  1  0
 18 19  1  0
  5 20  1  0
 20 21  2  0
 21 22  1  0
 22 23  2  0
 23 24  1  0
 24 25  2  0
 25  3  1  0
 19 15  2  0
 25 20  1  0
  1 26  1  0
  1 27  1  0
  1 28  1  0
  2 29  1  0
  2 30  1  0
  4 31  1  0
  8 32  1  0
  9 33  1  0
  9 34  1  0
 10 35  1  0
 10 36  1  0
 12 37  1  0
 12 38  1  0
 12 39  1  0
 16 40  1  0
 17 41  1  0
 18 42  1  0
 21 43  1  0
 22 44  1  0
 23 45  1  0
 24 46  1  0
M  END
>  <Energy>  (1103) 
625.74231014411748

>  <compound_id>  (1103) 
30262

>  <target_id>  (1103) 
1

>  <reference_id>  (1103) 
40

>  <inspiration_ids>  (1103) 
[40, 123]

>  <energy_score>  (1103) 
516.7897273654762

>  <distance_score>  (1103) 
7.8069076131378985

>  <path>  (1103) 
/opt/xchem-fragalysis-2/maxwin/BulkDock/SCRATCH/511023/C30262-P40/C30262-P40.minimised.mol

>  <scratch_subdir>  (1103) 
/opt/xchem-fragalysis-2/maxwin/BulkDock/SCRATCH/511023/C30262-P40

>  <fragmenstein_runtime>  (1103) 
24.897760152816772

>  <fragmenstein_outcome>  (1103) 
too moved

>  <fragmenstein_mode>  (1103) 
expansion

>  <fragmenstein_error>  (1103) 


$$$$
C30262-P123
     RDKit          3D

 46 48  0  0  0  0  0  0  0  0999 V2000
   -1.0806   -5.7550   35.7720 C   0  0  0  0  0  0  0  0  0  0  0  0
   -0.6994   -5.4494   34.3596 C   0  0  0  0  0  0  0  0  0  0  0  0
   -1.2118   -6.3499   33.3463 N   0  0  0  0  0  0  0  0  0  0  0  0
   -1.9143   -7.5305   33.4933 C   0  0  0  0  0  0  0  0  0  0  0  0
   -2.0619   -8.1183   32.2474 C   0  0  0  0  0  0  0  0  0  0  0  0
   -2.6929   -9.4336   31.8760 C   0  0  0  0  0  0  0  0  0  0  0  0
   -1.9358  -10.0869   31.2227 O   0  0  0  0  0  0  0  0  0  0  0  0
   -4.0920   -9.6833   32.2476 N   0  0  0  0  0  0  0  0  0  0  0  0
   -5.1605  -11.0338   31.8804 C   0  0  0  0  0  0  0  0  0  0  0  0
   -4.4204  -12.8515   31.9629 C   0  0  0  0  0  0  0  0  0  0  0  0
   -4.6693  -14.2242   33.9201 N   0  0  0  0  0  0  0  0  0  0  0  0
   -3.0156  -15.1308   33.3372 C   0  0  0  0  0  0  0  0  0  0  0  0
   -6.1089  -15.5692   34.1984 C   0  0  0  0  0  0  0  0  0  0  0  0
   -6.8022  -15.7993   33.3051 O   0  0  0  0  0  0  0  0  0  0  0  0
   -6.7739  -16.4495   35.6355 C   0  0  0  0  0  0  0  0  0  0  0  0
   -8.1384  -16.2350   36.0741 C   0  0  0  0  0  0  0  0  0  0  0  0
   -8.9698  -17.0809   35.3689 C   0  0  0  0  0  0  0  0  0  0  0  0
   -8.0955  -17.9033   34.7480 N   0  0  0  0  0  0  0  0  0  0  0  0
   -6.9096  -17.7999   35.3256 N   0  0  0  0  0  0  0  0  0  0  0  0
   -1.2745   -7.2584   31.3353 C   0  0  0  0  0  0  0  0  0  0  0  0
   -0.8360   -7.3127   29.9870 C   0  0  0  0  0  0  0  0  0  0  0  0
   -0.2850   -6.1972   29.3422 C   0  0  0  0  0  0  0  0  0  0  0  0
   -0.0086   -5.0456   30.0525 C   0  0  0  0  0  0  0  0  0  0  0  0
   -0.2821   -4.9997   31.4154 C   0  0  0  0  0  0  0  0  0  0  0  0
   -0.9139   -6.1083   32.0236 C   0  0  0  0  0  0  0  0  0  0  0  0
   -0.7264   -6.7469   36.0369 H   0  0  0  0  0  0  0  0  0  0  0  0
   -2.1550   -5.7279   35.9337 H   0  0  0  0  0  0  0  0  0  0  0  0
   -0.6162   -5.0153   36.4234 H   0  0  0  0  0  0  0  0  0  0  0  0
    0.3943   -5.4759   34.2744 H   0  0  0  0  0  0  0  0  0  0  0  0
   -1.0302   -4.4371   34.1046 H   0  0  0  0  0  0  0  0  0  0  0  0
   -2.2327   -7.8729   34.4694 H   0  0  0  0  0  0  0  0  0  0  0  0
   -4.4017   -8.9565   32.8801 H   0  0  0  0  0  0  0  0  0  0  0  0
   -5.6745  -11.0918   30.9383 H   0  0  0  0  0  0  0  0  0  0  0  0
   -5.9945  -10.8551   32.5186 H   0  0  0  0  0  0  0  0  0  0  0  0
   -3.7778  -13.4613   33.4283 H   0  0  0  0  0  0  0  0  0  0  0  0
   -3.5399  -13.5377   33.2410 H   0  0  0  0  0  0  0  0  0  0  0  0
   -3.1615  -16.0262   32.6967 H   0  0  0  0  0  0  0  0  0  0  0  0
   -2.0622  -14.5714   33.1988 H   0  0  0  0  0  0  0  0  0  0  0  0
   -2.6251  -15.3783   34.3303 H   0  0  0  0  0  0  0  0  0  0  0  0
   -8.4738  -15.3882   36.6082 H   0  0  0  0  0  0  0  0  0  0  0  0
  -10.0365  -17.1223   35.2120 H   0  0  0  0  0  0  0  0  0  0  0  0
   -8.2285  -18.6341   34.0529 H   0  0  0  0  0  0  0  0  0  0  0  0
   -0.8510   -8.2341   29.4159 H   0  0  0  0  0  0  0  0  0  0  0  0
   -0.0532   -6.2635   28.2848 H   0  0  0  0  0  0  0  0  0  0  0  0
    0.4479   -4.1926   29.5580 H   0  0  0  0  0  0  0  0  0  0  0  0
   -0.0110   -4.1195   31.9901 H   0  0  0  0  0  0  0  0  0  0  0  0
  1  2  1  0
  2  3  1  0
  3  4  1  0
  4  5  2  0
  5  6  1  0
  6  7  2  0
  6  8  1  0
  8  9  1  0
  9 10  1  0
 10 11  1  0
 11 12  1  0
 11 13  1  0
 13 14  2  0
 13 15  1  0
 15 16  1  0
 16 17  2  0
 17 18  1  0
 18 19  1  0
  5 20  1  0
 20 21  2  0
 21 22  1  0
 22 23  2  0
 23 24  1  0
 24 25  2  0
 25  3  1  0
 19 15  2  0
 25 20  1  0
  1 26  1  0
  1 27  1  0
  1 28  1  0
  2 29  1  0
  2 30  1  0
  4 31  1  0
  8 32  1  0
  9 33  1  0
  9 34  1  0
 10 35  1  0
 10 36  1  0
 12 37  1  0
 12 38  1  0
 12 39  1  0
 16 40  1  0
 17 41  1  0
 18 42  1  0
 21 43  1  0
 22 44  1  0
 23 45  1  0
 24 46  1  0
M  END
>  <Energy>  (1104) 
1404.0271862149712

>  <compound_id>  (1104) 
30262

>  <target_id>  (1104) 
1

>  <reference_id>  (1104) 
123

>  <inspiration_ids>  (1104) 
[40, 123]

>  <energy_score>  (1104) 
1295.0746034363476

>  <distance_score>  (1104) 
6.10572166543072

>  <path>  (1104) 
/opt/xchem-fragalysis-2/maxwin/BulkDock/SCRATCH/511023/C30262-P123/C30262-P123.minimised.mol

>  <scratch_subdir>  (1104) 
/opt/xchem-fragalysis-2/maxwin/BulkDock/SCRATCH/511023/C30262-P123

>  <fragmenstein_runtime>  (1104) 
25.647088527679443

>  <fragmenstein_outcome>  (1104) 
too moved

>  <fragmenstein_mode>  (1104) 
expansion

>  <fragmenstein_error>  (1104) 


$$$$
C30263-P40
     RDKit          3D

 43 45  0  0  0  0  0  0  0  0999 V2000
   -4.0894   -9.6604   36.2175 C   0  0  0  0  0  0  0  0  0  0  0  0
   -3.2745   -8.9348   35.2620 C   0  0  0  0  0  0  0  0  0  0  0  0
   -2.2738   -8.0078   35.4528 N   0  0  0  0  0  0  0  0  0  0  0  0
   -1.6752   -7.6406   34.2660 C   0  0  0  0  0  0  0  0  0  0  0  0
   -0.6839   -6.6835   33.9926 C   0  0  0  0  0  0  0  0  0  0  0  0
   -0.1909   -6.5987   32.6868 C   0  0  0  0  0  0  0  0  0  0  0  0
   -0.6192   -7.4925   31.7169 C   0  0  0  0  0  0  0  0  0  0  0  0
   -1.6119   -8.4280   32.0292 C   0  0  0  0  0  0  0  0  0  0  0  0
   -2.2500   -8.4522   33.2835 C   0  0  0  0  0  0  0  0  0  0  0  0
   -3.3874   -9.2019   33.9354 C   0  0  0  0  0  0  0  0  0  0  0  0
   -5.0427   -9.4616   33.4567 C   0  0  0  0  0  0  0  0  0  0  0  0
   -5.5718   -8.4371   33.3966 O   0  0  0  0  0  0  0  0  0  0  0  0
   -5.7308  -11.3447   33.2466 N   0  0  0  0  0  0  0  0  0  0  0  0
   -7.5963  -12.1841   32.9942 C   0  0  0  0  0  0  0  0  0  0  0  0
   -8.5970  -14.1667   33.1500 C   0  0  0  0  0  0  0  0  0  0  0  0
   -9.5725  -15.9903   32.7671 N   0  0  0  0  0  0  0  0  0  0  0  0
  -10.6533  -15.2990   33.3898 C   0  0  0  0  0  0  0  0  0  0  0  0
   -9.4171  -17.7988   33.5358 C   0  0  0  0  0  0  0  0  0  0  0  0
   -8.7190  -18.0567   34.4973 O   0  0  0  0  0  0  0  0  0  0  0  0
  -10.2559  -19.5175   32.6701 C   0  0  0  0  0  0  0  0  0  0  0  0
  -10.8897  -20.4867   31.0811 C   0  0  0  0  0  0  0  0  0  0  0  0
  -11.5377  -21.6667   30.7630 C   0  0  0  0  0  0  0  0  0  0  0  0
  -11.0192  -22.3222   31.7918 N   0  0  0  0  0  0  0  0  0  0  0  0
   -9.8588  -21.2600   32.4673 N   0  0  0  0  0  0  0  0  0  0  0  0
   -3.3915  -10.2224   36.8391 H   0  0  0  0  0  0  0  0  0  0  0  0
   -4.7338  -10.3289   35.6564 H   0  0  0  0  0  0  0  0  0  0  0  0
   -4.8657   -9.1715   36.7955 H   0  0  0  0  0  0  0  0  0  0  0  0
   -2.0849   -7.5539   36.3368 H   0  0  0  0  0  0  0  0  0  0  0  0
   -0.3101   -6.0308   34.7755 H   0  0  0  0  0  0  0  0  0  0  0  0
    0.5776   -5.8655   32.4568 H   0  0  0  0  0  0  0  0  0  0  0  0
   -0.1469   -7.5037   30.7410 H   0  0  0  0  0  0  0  0  0  0  0  0
   -1.7819   -9.2684   31.3919 H   0  0  0  0  0  0  0  0  0  0  0  0
   -5.0253  -12.0221   33.2699 H   0  0  0  0  0  0  0  0  0  0  0  0
   -8.0674  -11.5698   32.2496 H   0  0  0  0  0  0  0  0  0  0  0  0
   -7.9067  -11.7414   33.9235 H   0  0  0  0  0  0  0  0  0  0  0  0
   -9.4572  -13.6000   32.8572 H   0  0  0  0  0  0  0  0  0  0  0  0
   -8.1423  -14.4470   32.1757 H   0  0  0  0  0  0  0  0  0  0  0  0
  -11.0759  -15.9539   34.1788 H   0  0  0  0  0  0  0  0  0  0  0  0
  -11.5130  -15.0266   32.7788 H   0  0  0  0  0  0  0  0  0  0  0  0
  -10.2847  -14.6297   34.0499 H   0  0  0  0  0  0  0  0  0  0  0  0
  -10.6806  -20.2820   30.0205 H   0  0  0  0  0  0  0  0  0  0  0  0
  -11.9667  -22.0859   29.8643 H   0  0  0  0  0  0  0  0  0  0  0  0
  -10.9422  -23.2955   32.0893 H   0  0  0  0  0  0  0  0  0  0  0  0
  1  2  1  0
  2  3  1  0
  3  4  1  0
  4  5  2  0
  5  6  1  0
  6  7  2  0
  7  8  1  0
  8  9  2  0
  9 10  1  0
 10 11  1  0
 11 12  2  0
 11 13  1  0
 13 14  1  0
 14 15  1  0
 15 16  1  0
 16 17  1  0
 16 18  1  0
 18 19  2  0
 18 20  1  0
 20 21  1  0
 21 22  2  0
 22 23  1  0
 23 24  1  0
 10  2  2  0
 24 20  2  0
  9  4  1  0
  1 25  1  0
  1 26  1  0
  1 27  1  0
  3 28  1  0
  5 29  1  0
  6 30  1  0
  7 31  1  0
  8 32  1  0
 13 33  1  0
 14 34  1  0
 14 35  1  0
 15 36  1  0
 15 37  1  0
 17 38  1  0
 17 39  1  0
 17 40  1  0
 21 41  1  0
 22 42  1  0
 23 43  1  0
M  END
>  <Energy>  (1105) 
1347.9286355129718

>  <compound_id>  (1105) 
30263

>  <target_id>  (1105) 
1

>  <reference_id>  (1105) 
40

>  <inspiration_ids>  (1105) 
[40, 123]

>  <energy_score>  (1105) 
1246.455213802425

>  <distance_score>  (1105) 
5.214891337713577

>  <path>  (1105) 
/opt/xchem-fragalysis-2/maxwin/BulkDock/SCRATCH/511023/C30263-P40/C30263-P40.minimised.mol

>  <scratch_subdir>  (1105) 
/opt/xchem-fragalysis-2/maxwin/BulkDock/SCRATCH/511023/C30263-P40

>  <fragmenstein_runtime>  (1105) 
17.254772424697876

>  <fragmenstein_outcome>  (1105) 
too moved

>  <fragmenstein_mode>  (1105) 
expansion

>  <fragmenstein_error>  (1105) 


$$$$
C30263-P123
     RDKit          3D

 43 45  0  0  0  0  0  0  0  0999 V2000
   -0.4895   -7.2066   35.3276 C   0  0  0  0  0  0  0  0  0  0  0  0
   -1.8670   -8.0732   35.3536 C   0  0  0  0  0  0  0  0  0  0  0  0
   -2.7131   -7.1117   34.8685 N   0  0  0  0  0  0  0  0  0  0  0  0
   -2.2219   -7.1530   33.5428 C   0  0  0  0  0  0  0  0  0  0  0  0
   -1.6190   -6.1874   32.7047 C   0  0  0  0  0  0  0  0  0  0  0  0
   -1.0213   -6.6521   31.5534 C   0  0  0  0  0  0  0  0  0  0  0  0
   -1.1620   -7.9861   31.2315 C   0  0  0  0  0  0  0  0  0  0  0  0
   -1.8961   -8.9051   32.0400 C   0  0  0  0  0  0  0  0  0  0  0  0
   -2.2948   -8.5218   33.3250 C   0  0  0  0  0  0  0  0  0  0  0  0
   -2.5635   -9.2111   34.6951 C   0  0  0  0  0  0  0  0  0  0  0  0
   -2.5028  -10.9043   34.5860 C   0  0  0  0  0  0  0  0  0  0  0  0
   -1.5162  -11.2309   33.9840 O   0  0  0  0  0  0  0  0  0  0  0  0
   -3.8898  -11.9716   35.1983 N   0  0  0  0  0  0  0  0  0  0  0  0
   -4.3252  -13.9701   34.9627 C   0  0  0  0  0  0  0  0  0  0  0  0
   -5.9853  -15.2700   34.5174 C   0  0  0  0  0  0  0  0  0  0  0  0
   -7.6233  -15.9802   35.2948 N   0  0  0  0  0  0  0  0  0  0  0  0
   -6.8755  -17.1065   35.4081 C   0  0  0  0  0  0  0  0  0  0  0  0
   -8.8925  -16.3099   34.6861 C   0  0  0  0  0  0  0  0  0  0  0  0
   -9.2251  -16.3149   33.5351 O   0  0  0  0  0  0  0  0  0  0  0  0
   -9.8827  -16.8220   35.7449 C   0  0  0  0  0  0  0  0  0  0  0  0
  -11.2147  -17.3338   35.5554 C   0  0  0  0  0  0  0  0  0  0  0  0
  -11.7146  -17.6491   36.7937 C   0  0  0  0  0  0  0  0  0  0  0  0
  -10.7064  -17.3719   37.6538 N   0  0  0  0  0  0  0  0  0  0  0  0
   -9.5973  -16.8865   37.0733 N   0  0  0  0  0  0  0  0  0  0  0  0
   -0.5791   -6.1977   34.9028 H   0  0  0  0  0  0  0  0  0  0  0  0
   -0.1949   -6.8840   36.3144 H   0  0  0  0  0  0  0  0  0  0  0  0
    0.2935   -7.6776   34.7465 H   0  0  0  0  0  0  0  0  0  0  0  0
   -2.7460   -6.2287   35.3595 H   0  0  0  0  0  0  0  0  0  0  0  0
   -1.5110   -5.1541   33.0179 H   0  0  0  0  0  0  0  0  0  0  0  0
   -0.4319   -5.9906   30.9262 H   0  0  0  0  0  0  0  0  0  0  0  0
   -0.6460   -8.3478   30.3414 H   0  0  0  0  0  0  0  0  0  0  0  0
   -1.9541   -9.9391   31.7353 H   0  0  0  0  0  0  0  0  0  0  0  0
   -4.5788  -11.4173   35.5728 H   0  0  0  0  0  0  0  0  0  0  0  0
   -3.6502  -14.3599   34.1985 H   0  0  0  0  0  0  0  0  0  0  0  0
   -4.1032  -14.3115   35.9788 H   0  0  0  0  0  0  0  0  0  0  0  0
   -5.7726  -15.9149   33.6349 H   0  0  0  0  0  0  0  0  0  0  0  0
   -6.7658  -14.6729   34.0567 H   0  0  0  0  0  0  0  0  0  0  0  0
   -6.4338  -16.8531   36.3244 H   0  0  0  0  0  0  0  0  0  0  0  0
   -6.6226  -17.5071   34.4332 H   0  0  0  0  0  0  0  0  0  0  0  0
   -7.5039  -17.9493   35.7452 H   0  0  0  0  0  0  0  0  0  0  0  0
  -11.7760  -17.4327   34.6504 H   0  0  0  0  0  0  0  0  0  0  0  0
  -12.6623  -18.0577   37.1119 H   0  0  0  0  0  0  0  0  0  0  0  0
  -10.6760  -17.5482   38.6523 H   0  0  0  0  0  0  0  0  0  0  0  0
  1  2  1  0
  2  3  1  0
  3  4  1  0
  4  5  2  0
  5  6  1  0
  6  7  2  0
  7  8  1  0
  8  9  2  0
  9 10  1  0
 10 11  1  0
 11 12  2  0
 11 13  1  0
 13 14  1  0
 14 15  1  0
 15 16  1  0
 16 17  1  0
 16 18  1  0
 18 19  2  0
 18 20  1  0
 20 21  1  0
 21 22  2  0
 22 23  1  0
 23 24  1  0
 10  2  2  0
 24 20  2  0
  9  4  1  0
  1 25  1  0
  1 26  1  0
  1 27  1  0
  3 28  1  0
  5 29  1  0
  6 30  1  0
  7 31  1  0
  8 32  1  0
 13 33  1  0
 14 34  1  0
 14 35  1  0
 15 36  1  0
 15 37  1  0
 17 38  1  0
 17 39  1  0
 17 40  1  0
 21 41  1  0
 22 42  1  0
 23 43  1  0
M  END
>  <Energy>  (1106) 
661.77490091835637

>  <compound_id>  (1106) 
30263

>  <target_id>  (1106) 
1

>  <reference_id>  (1106) 
123

>  <inspiration_ids>  (1106) 
[40, 123]

>  <energy_score>  (1106) 
560.3014792078249

>  <distance_score>  (1106) 
6.612731367683744

>  <path>  (1106) 
/opt/xchem-fragalysis-2/maxwin/BulkDock/SCRATCH/511023/C30263-P123/C30263-P123.minimised.mol

>  <scratch_subdir>  (1106) 
/opt/xchem-fragalysis-2/maxwin/BulkDock/SCRATCH/511023/C30263-P123

>  <fragmenstein_runtime>  (1106) 
20.60113787651062

>  <fragmenstein_outcome>  (1106) 
too moved

>  <fragmenstein_mode>  (1106) 
expansion

>  <fragmenstein_error>  (1106) 


$$$$
C30264-P40
     RDKit          3D

 44 46  0  0  0  0  0  0  0  0999 V2000
   -3.5058  -15.3268   31.2408 C   0  0  0  0  0  0  0  0  0  0  0  0
   -4.8819  -15.2487   30.6596 C   0  0  0  0  0  0  0  0  0  0  0  0
   -4.7916  -13.4860   29.8405 N   0  0  0  0  0  0  0  0  0  0  0  0
   -3.2738  -12.1413   29.4007 C   0  0  0  0  0  0  0  0  0  0  0  0
   -1.7949  -10.8336   29.9657 C   0  0  0  0  0  0  0  0  0  0  0  0
   -0.8734  -10.0874   29.1440 C   0  0  0  0  0  0  0  0  0  0  0  0
   -0.1382   -8.7714   29.2668 C   0  0  0  0  0  0  0  0  0  0  0  0
   -0.2428   -7.9578   30.3768 C   0  0  0  0  0  0  0  0  0  0  0  0
    0.1733   -6.6613   30.7538 C   0  0  0  0  0  0  0  0  0  0  0  0
   -0.2664   -6.4664   32.0424 C   0  0  0  0  0  0  0  0  0  0  0  0
   -0.9297   -7.6022   32.4380 N   0  0  0  0  0  0  0  0  0  0  0  0
   -0.9526   -8.5098   31.4038 C   0  0  0  0  0  0  0  0  0  0  0  0
   -1.6373   -9.7842   31.2508 C   0  0  0  0  0  0  0  0  0  0  0  0
   -6.0176  -16.2895   31.9390 C   0  0  0  0  0  0  0  0  0  0  0  0
   -6.8846  -14.6220   31.4018 C   0  0  0  0  0  0  0  0  0  0  0  0
   -7.3712  -17.8619   31.9218 N   0  0  0  0  0  0  0  0  0  0  0  0
   -8.5944  -18.5775   33.2620 C   0  0  0  0  0  0  0  0  0  0  0  0
   -8.7004  -18.2705   34.4422 O   0  0  0  0  0  0  0  0  0  0  0  0
  -10.0851  -19.8776   32.6592 C   0  0  0  0  0  0  0  0  0  0  0  0
  -10.8821  -20.5968   31.0550 C   0  0  0  0  0  0  0  0  0  0  0  0
  -11.6160  -21.7193   30.7733 C   0  0  0  0  0  0  0  0  0  0  0  0
  -11.0758  -22.4189   31.7805 N   0  0  0  0  0  0  0  0  0  0  0  0
   -9.8204  -21.5389   32.3281 N   0  0  0  0  0  0  0  0  0  0  0  0
   -3.5144  -16.2847   31.7019 H   0  0  0  0  0  0  0  0  0  0  0  0
   -2.7507  -15.1310   30.4913 H   0  0  0  0  0  0  0  0  0  0  0  0
   -3.1635  -14.6859   32.0346 H   0  0  0  0  0  0  0  0  0  0  0  0
   -5.0336  -15.9660   29.8395 H   0  0  0  0  0  0  0  0  0  0  0  0
   -5.7164  -13.1522   29.6115 H   0  0  0  0  0  0  0  0  0  0  0  0
   -3.6459  -11.7798   28.4659 H   0  0  0  0  0  0  0  0  0  0  0  0
   -2.5508  -12.8210   29.0117 H   0  0  0  0  0  0  0  0  0  0  0  0
   -0.9222  -10.4391   28.1470 H   0  0  0  0  0  0  0  0  0  0  0  0
    0.4322   -8.3318   28.4642 H   0  0  0  0  0  0  0  0  0  0  0  0
    0.7329   -5.9461   30.1652 H   0  0  0  0  0  0  0  0  0  0  0  0
   -0.1663   -5.6259   32.7177 H   0  0  0  0  0  0  0  0  0  0  0  0
   -1.3527   -7.7544   33.3465 H   0  0  0  0  0  0  0  0  0  0  0  0
   -2.3239   -9.7711   32.0850 H   0  0  0  0  0  0  0  0  0  0  0  0
   -5.8379  -15.5067   32.5095 H   0  0  0  0  0  0  0  0  0  0  0  0
   -6.4043  -13.7202   31.8215 H   0  0  0  0  0  0  0  0  0  0  0  0
   -6.7971  -14.3109   30.3754 H   0  0  0  0  0  0  0  0  0  0  0  0
   -7.9236  -14.6555   31.7644 H   0  0  0  0  0  0  0  0  0  0  0  0
   -7.4585  -18.3703   31.0499 H   0  0  0  0  0  0  0  0  0  0  0  0
  -10.5672  -20.4603   30.0524 H   0  0  0  0  0  0  0  0  0  0  0  0
  -12.1003  -22.1201   29.8939 H   0  0  0  0  0  0  0  0  0  0  0  0
  -11.0299  -23.4103   32.0092 H   0  0  0  0  0  0  0  0  0  0  0  0
  1  2  1  0
  2  3  1  0
  3  4  1  0
  4  5  1  0
  5  6  2  0
  6  7  1  0
  7  8  2  0
  8  9  1  0
  9 10  2  0
 10 11  1  0
 11 12  1  0
 12 13  2  0
  2 14  1  0
 14 15  1  0
 14 16  1  0
 16 17  1  0
 17 18  2  0
 17 19  1  0
 19 20  1  0
 20 21  2  0
 21 22  1  0
 22 23  1  0
 13  5  1  0
 23 19  2  0
 12  8  1  0
  1 24  1  0
  1 25  1  0
  1 26  1  0
  2 27  1  0
  3 28  1  0
  4 29  1  0
  4 30  1  0
  6 31  1  0
  7 32  1  0
  9 33  1  0
 10 34  1  0
 11 35  1  0
 13 36  1  0
 14 37  1  0
 15 38  1  0
 15 39  1  0
 15 40  1  0
 16 41  1  0
 20 42  1  0
 21 43  1  0
 22 44  1  0
M  END
>  <Energy>  (1107) 
1261.639895200984

>  <compound_id>  (1107) 
30264

>  <target_id>  (1107) 
1

>  <reference_id>  (1107) 
40

>  <inspiration_ids>  (1107) 
[40, 123]

>  <energy_score>  (1107) 
1149.1908372403236

>  <distance_score>  (1107) 
4.640743892516839

>  <path>  (1107) 
/opt/xchem-fragalysis-2/maxwin/BulkDock/SCRATCH/511023/C30264-P40/C30264-P40.minimised.mol

>  <scratch_subdir>  (1107) 
/opt/xchem-fragalysis-2/maxwin/BulkDock/SCRATCH/511023/C30264-P40

>  <fragmenstein_runtime>  (1107) 
15.262146472930908

>  <fragmenstein_outcome>  (1107) 
too moved

>  <fragmenstein_mode>  (1107) 
expansion

>  <fragmenstein_error>  (1107) 


$$$$
C30264-P123
     RDKit          3D

 44 46  0  0  0  0  0  0  0  0999 V2000
   -6.5243  -16.7145   33.0047 C   0  0  0  0  0  0  0  0  0  0  0  0
   -7.6504  -15.5818   33.0940 C   0  0  0  0  0  0  0  0  0  0  0  0
   -7.4733  -14.3341   31.6698 N   0  0  0  0  0  0  0  0  0  0  0  0
   -6.1854  -13.6639   30.5054 C   0  0  0  0  0  0  0  0  0  0  0  0
   -5.0642  -12.1893   30.6258 C   0  0  0  0  0  0  0  0  0  0  0  0
   -3.7166  -12.0162   30.1095 C   0  0  0  0  0  0  0  0  0  0  0  0
   -2.6277  -10.9525   30.6503 C   0  0  0  0  0  0  0  0  0  0  0  0
   -2.9293   -9.9224   31.6985 C   0  0  0  0  0  0  0  0  0  0  0  0
   -2.2015   -8.9378   32.4011 C   0  0  0  0  0  0  0  0  0  0  0  0
   -2.9726   -8.6315   33.4885 C   0  0  0  0  0  0  0  0  0  0  0  0
   -4.2760   -9.0659   33.2632 N   0  0  0  0  0  0  0  0  0  0  0  0
   -4.3025   -9.9067   32.1724 C   0  0  0  0  0  0  0  0  0  0  0  0
   -5.3566  -11.1135   31.5808 C   0  0  0  0  0  0  0  0  0  0  0  0
   -8.5773  -16.4674   34.4182 C   0  0  0  0  0  0  0  0  0  0  0  0
   -7.8774  -16.3790   35.7529 C   0  0  0  0  0  0  0  0  0  0  0  0
  -10.0009  -16.7899   34.5747 N   0  0  0  0  0  0  0  0  0  0  0  0
  -10.7653  -17.1789   35.7454 C   0  0  0  0  0  0  0  0  0  0  0  0
  -10.4444  -17.2561   36.8993 O   0  0  0  0  0  0  0  0  0  0  0  0
  -12.1499  -17.6566   35.4447 C   0  0  0  0  0  0  0  0  0  0  0  0
  -13.3694  -17.2000   36.0053 C   0  0  0  0  0  0  0  0  0  0  0  0
  -14.3235  -18.1178   35.6314 C   0  0  0  0  0  0  0  0  0  0  0  0
  -13.6598  -19.0772   34.9346 N   0  0  0  0  0  0  0  0  0  0  0  0
  -12.3604  -18.8126   34.7784 N   0  0  0  0  0  0  0  0  0  0  0  0
   -6.4312  -17.1851   33.9613 H   0  0  0  0  0  0  0  0  0  0  0  0
   -5.5489  -16.3769   32.6989 H   0  0  0  0  0  0  0  0  0  0  0  0
   -6.7770  -17.5608   32.3684 H   0  0  0  0  0  0  0  0  0  0  0  0
   -8.5942  -15.7855   32.5976 H   0  0  0  0  0  0  0  0  0  0  0  0
   -6.7234  -14.9906   31.4248 H   0  0  0  0  0  0  0  0  0  0  0  0
   -6.6721  -13.6597   29.5222 H   0  0  0  0  0  0  0  0  0  0  0  0
   -5.6112  -14.5384   30.2540 H   0  0  0  0  0  0  0  0  0  0  0  0
   -3.2691  -12.7093   29.4490 H   0  0  0  0  0  0  0  0  0  0  0  0
   -1.6181  -10.9753   30.2518 H   0  0  0  0  0  0  0  0  0  0  0  0
   -1.1754   -8.6232   32.2869 H   0  0  0  0  0  0  0  0  0  0  0  0
   -2.7385   -8.0763   34.3896 H   0  0  0  0  0  0  0  0  0  0  0  0
   -5.0284   -8.9709   33.9390 H   0  0  0  0  0  0  0  0  0  0  0  0
   -6.2241  -11.3504   32.1380 H   0  0  0  0  0  0  0  0  0  0  0  0
   -8.3404  -17.4965   34.1061 H   0  0  0  0  0  0  0  0  0  0  0  0
   -7.6777  -17.3742   36.1601 H   0  0  0  0  0  0  0  0  0  0  0  0
   -6.9527  -15.8661   35.5726 H   0  0  0  0  0  0  0  0  0  0  0  0
   -8.4084  -15.8223   36.5162 H   0  0  0  0  0  0  0  0  0  0  0  0
  -10.5716  -16.9203   33.7505 H   0  0  0  0  0  0  0  0  0  0  0  0
  -13.5123  -16.3399   36.6427 H   0  0  0  0  0  0  0  0  0  0  0  0
  -15.3816  -18.1925   35.8363 H   0  0  0  0  0  0  0  0  0  0  0  0
  -14.0248  -19.9387   34.5396 H   0  0  0  0  0  0  0  0  0  0  0  0
  1  2  1  0
  2  3  1  0
  3  4  1  0
  4  5  1  0
  5  6  2  0
  6  7  1  0
  7  8  2  0
  8  9  1  0
  9 10  2  0
 10 11  1  0
 11 12  1  0
 12 13  2  0
  2 14  1  0
 14 15  1  0
 14 16  1  0
 16 17  1  0
 17 18  2  0
 17 19  1  0
 19 20  1  0
 20 21  2  0
 21 22  1  0
 22 23  1  0
 13  5  1  0
 23 19  2  0
 12  8  1  0
  1 24  1  0
  1 25  1  0
  1 26  1  0
  2 27  1  0
  3 28  1  0
  4 29  1  0
  4 30  1  0
  6 31  1  0
  7 32  1  0
  9 33  1  0
 10 34  1  0
 11 35  1  0
 13 36  1  0
 14 37  1  0
 15 38  1  0
 15 39  1  0
 15 40  1  0
 16 41  1  0
 20 42  1  0
 21 43  1  0
 22 44  1  0
M  END
>  <Energy>  (1108) 
455.35298324271497

>  <compound_id>  (1108) 
30264

>  <target_id>  (1108) 
1

>  <reference_id>  (1108) 
123

>  <inspiration_ids>  (1108) 
[40, 123]

>  <energy_score>  (1108) 
342.90392528207224

>  <distance_score>  (1108) 
7.740045817281053

>  <path>  (1108) 
/opt/xchem-fragalysis-2/maxwin/BulkDock/SCRATCH/511023/C30264-P123/C30264-P123.minimised.mol

>  <scratch_subdir>  (1108) 
/opt/xchem-fragalysis-2/maxwin/BulkDock/SCRATCH/511023/C30264-P123

>  <fragmenstein_runtime>  (1108) 
25.999465227127075

>  <fragmenstein_outcome>  (1108) 
too moved

>  <fragmenstein_mode>  (1108) 
expansion

>  <fragmenstein_error>  (1108) 


$$$$
C30265-P40
     RDKit          3D

 41 43  0  0  0  0  0  0  0  0999 V2000
   -6.2391  -14.3875   30.3548 N   0  0  0  0  0  0  0  0  0  0  0  0
   -6.0997  -14.7516   31.7280 C   0  0  0  0  0  0  0  0  0  0  0  0
   -6.3090  -16.7342   32.2633 C   0  0  0  0  0  0  0  0  0  0  0  0
   -7.4840  -17.9650   33.0568 C   0  0  0  0  0  0  0  0  0  0  0  0
   -8.7320  -17.8773   33.9844 C   0  0  0  0  0  0  0  0  0  0  0  0
   -8.7951  -19.0676   34.6769 C   0  0  0  0  0  0  0  0  0  0  0  0
   -7.7443  -19.8180   34.2349 N   0  0  0  0  0  0  0  0  0  0  0  0
   -6.9571  -19.2221   33.2876 N   0  0  0  0  0  0  0  0  0  0  0  0
   -6.5769  -12.9610   32.6778 C   0  0  0  0  0  0  0  0  0  0  0  0
   -7.7610  -12.9061   32.8933 O   0  0  0  0  0  0  0  0  0  0  0  0
   -5.4681  -11.9161   33.1495 N   0  0  0  0  0  0  0  0  0  0  0  0
   -5.5724  -10.4273   34.2418 C   0  0  0  0  0  0  0  0  0  0  0  0
   -4.0250   -9.4044   34.8184 C   0  0  0  0  0  0  0  0  0  0  0  0
   -2.6726   -8.4939   34.4038 C   0  0  0  0  0  0  0  0  0  0  0  0
   -1.7927   -8.2388   35.5145 C   0  0  0  0  0  0  0  0  0  0  0  0
   -0.6294   -7.4626   35.5477 C   0  0  0  0  0  0  0  0  0  0  0  0
   -0.1446   -6.9236   34.3827 C   0  0  0  0  0  0  0  0  0  0  0  0
   -0.7958   -7.2726   33.1992 C   0  0  0  0  0  0  0  0  0  0  0  0
   -0.4629   -6.9535   31.8609 C   0  0  0  0  0  0  0  0  0  0  0  0
   -1.4277   -7.5088   31.0775 C   0  0  0  0  0  0  0  0  0  0  0  0
   -2.3059   -8.1837   31.8957 N   0  0  0  0  0  0  0  0  0  0  0  0
   -1.9836   -8.0423   33.2235 C   0  0  0  0  0  0  0  0  0  0  0  0
   -5.7716  -13.5592   30.0619 H   0  0  0  0  0  0  0  0  0  0  0  0
   -5.9108  -15.1715   29.7988 H   0  0  0  0  0  0  0  0  0  0  0  0
   -5.0270  -14.9030   31.6492 H   0  0  0  0  0  0  0  0  0  0  0  0
   -6.5053  -17.4293   31.3934 H   0  0  0  0  0  0  0  0  0  0  0  0
   -5.3824  -17.1113   32.6458 H   0  0  0  0  0  0  0  0  0  0  0  0
   -9.3829  -17.0261   34.1474 H   0  0  0  0  0  0  0  0  0  0  0  0
   -9.4581  -19.4130   35.4534 H   0  0  0  0  0  0  0  0  0  0  0  0
   -7.5132  -20.7710   34.4846 H   0  0  0  0  0  0  0  0  0  0  0  0
   -4.6289  -12.2430   32.9188 H   0  0  0  0  0  0  0  0  0  0  0  0
   -6.4969  -10.5569   34.8406 H   0  0  0  0  0  0  0  0  0  0  0  0
   -5.3028  -10.8367   35.2378 H   0  0  0  0  0  0  0  0  0  0  0  0
   -3.5262  -10.1508   35.4478 H   0  0  0  0  0  0  0  0  0  0  0  0
   -4.4325   -8.7649   35.6012 H   0  0  0  0  0  0  0  0  0  0  0  0
   -1.9788   -8.8307   36.4056 H   0  0  0  0  0  0  0  0  0  0  0  0
   -0.0873   -7.3346   36.4805 H   0  0  0  0  0  0  0  0  0  0  0  0
    0.7556   -6.3187   34.3797 H   0  0  0  0  0  0  0  0  0  0  0  0
    0.3691   -6.3479   31.5278 H   0  0  0  0  0  0  0  0  0  0  0  0
   -1.5647   -7.4191   30.0108 H   0  0  0  0  0  0  0  0  0  0  0  0
   -3.1915   -8.6035   31.6361 H   0  0  0  0  0  0  0  0  0  0  0  0
  1  2  1  0
  2  3  1  0
  3  4  1  0
  4  5  1  0
  5  6  2  0
  6  7  1  0
  7  8  1  0
  2  9  1  0
  9 10  2  0
  9 11  1  0
 11 12  1  0
 12 13  1  0
 13 14  1  0
 14 15  2  0
 15 16  1  0
 16 17  2  0
 17 18  1  0
 18 19  1  0
 19 20  2  0
 20 21  1  0
 21 22  1  0
  8  4  2  0
 22 14  1  0
 22 18  2  0
  1 23  1  0
  1 24  1  0
  2 25  1  0
  3 26  1  0
  3 27  1  0
  5 28  1  0
  6 29  1  0
  7 30  1  0
 11 31  1  0
 12 32  1  0
 12 33  1  0
 13 34  1  0
 13 35  1  0
 15 36  1  0
 16 37  1  0
 17 38  1  0
 19 39  1  0
 20 40  1  0
 21 41  1  0
M  END
>  <Energy>  (1109) 
506.05488379725017

>  <compound_id>  (1109) 
30265

>  <target_id>  (1109) 
1

>  <reference_id>  (1109) 
40

>  <inspiration_ids>  (1109) 
[40, 123]

>  <energy_score>  (1109) 
403.48347260148535

>  <distance_score>  (1109) 
6.108206559058774

>  <path>  (1109) 
/opt/xchem-fragalysis-2/maxwin/BulkDock/SCRATCH/511023/C30265-P40/C30265-P40.minimised.mol

>  <scratch_subdir>  (1109) 
/opt/xchem-fragalysis-2/maxwin/BulkDock/SCRATCH/511023/C30265-P40

>  <fragmenstein_runtime>  (1109) 
18.649916172027588

>  <fragmenstein_outcome>  (1109) 
too moved

>  <fragmenstein_mode>  (1109) 
expansion

>  <fragmenstein_error>  (1109) 


$$$$
C30265-P123
     RDKit          3D

 41 43  0  0  0  0  0  0  0  0999 V2000
   -5.6547  -16.5679   31.6630 N   0  0  0  0  0  0  0  0  0  0  0  0
   -4.6362  -16.6709   32.7308 C   0  0  0  0  0  0  0  0  0  0  0  0
   -6.2369  -16.2798   33.6189 C   0  0  0  0  0  0  0  0  0  0  0  0
   -7.1496  -17.1237   34.4893 C   0  0  0  0  0  0  0  0  0  0  0  0
   -7.8809  -16.5442   35.5515 C   0  0  0  0  0  0  0  0  0  0  0  0
   -8.2294  -17.5510   36.3843 C   0  0  0  0  0  0  0  0  0  0  0  0
   -7.7030  -18.6352   35.7744 N   0  0  0  0  0  0  0  0  0  0  0  0
   -7.3170  -18.4382   34.5073 N   0  0  0  0  0  0  0  0  0  0  0  0
   -3.0785  -15.3913   33.0658 C   0  0  0  0  0  0  0  0  0  0  0  0
   -3.3219  -14.7154   34.0193 O   0  0  0  0  0  0  0  0  0  0  0  0
   -1.7572  -15.1575   32.0755 N   0  0  0  0  0  0  0  0  0  0  0  0
   -0.4685  -13.7773   32.0339 C   0  0  0  0  0  0  0  0  0  0  0  0
   -0.8944  -12.0343   31.0646 C   0  0  0  0  0  0  0  0  0  0  0  0
   -1.4243  -10.2834   30.9841 C   0  0  0  0  0  0  0  0  0  0  0  0
   -1.9439   -9.5596   32.1414 C   0  0  0  0  0  0  0  0  0  0  0  0
   -1.8166   -8.1761   32.3512 C   0  0  0  0  0  0  0  0  0  0  0  0
   -1.2267   -7.3498   31.4079 C   0  0  0  0  0  0  0  0  0  0  0  0
   -0.7821   -7.9089   30.2026 C   0  0  0  0  0  0  0  0  0  0  0  0
   -0.4787   -7.2987   28.9547 C   0  0  0  0  0  0  0  0  0  0  0  0
   -0.1875   -8.3160   28.0801 C   0  0  0  0  0  0  0  0  0  0  0  0
   -0.2105   -9.5149   28.7705 N   0  0  0  0  0  0  0  0  0  0  0  0
   -0.7721   -9.3301   30.0227 C   0  0  0  0  0  0  0  0  0  0  0  0
   -5.4753  -16.4835   30.6627 H   0  0  0  0  0  0  0  0  0  0  0  0
   -6.2703  -17.3995   31.7753 H   0  0  0  0  0  0  0  0  0  0  0  0
   -4.5335  -17.6818   32.6339 H   0  0  0  0  0  0  0  0  0  0  0  0
   -5.9809  -15.4178   34.2317 H   0  0  0  0  0  0  0  0  0  0  0  0
   -7.0526  -15.8602   33.0321 H   0  0  0  0  0  0  0  0  0  0  0  0
   -7.9407  -15.5130   35.7988 H   0  0  0  0  0  0  0  0  0  0  0  0
   -8.6265  -17.5486   37.3854 H   0  0  0  0  0  0  0  0  0  0  0  0
   -7.6109  -19.5557   36.1720 H   0  0  0  0  0  0  0  0  0  0  0  0
   -1.7288  -15.8951   31.4022 H   0  0  0  0  0  0  0  0  0  0  0  0
    0.4084  -14.1946   31.5431 H   0  0  0  0  0  0  0  0  0  0  0  0
   -0.4022  -13.3643   33.0380 H   0  0  0  0  0  0  0  0  0  0  0  0
   -1.8663  -12.1878   30.5408 H   0  0  0  0  0  0  0  0  0  0  0  0
   -0.0045  -11.7474   30.4812 H   0  0  0  0  0  0  0  0  0  0  0  0
   -2.2500  -10.0828   33.0352 H   0  0  0  0  0  0  0  0  0  0  0  0
   -2.1426   -7.7508   33.2978 H   0  0  0  0  0  0  0  0  0  0  0  0
   -1.1700   -6.2792   31.5794 H   0  0  0  0  0  0  0  0  0  0  0  0
   -0.4914   -6.2415   28.7261 H   0  0  0  0  0  0  0  0  0  0  0  0
    0.0385   -8.2551   27.0316 H   0  0  0  0  0  0  0  0  0  0  0  0
   -0.0364  -10.4259   28.3799 H   0  0  0  0  0  0  0  0  0  0  0  0
  1  2  1  0
  2  3  1  0
  3  4  1  0
  4  5  1  0
  5  6  2  0
  6  7  1  0
  7  8  1  0
  2  9  1  0
  9 10  2  0
  9 11  1  0
 11 12  1  0
 12 13  1  0
 13 14  1  0
 14 15  2  0
 15 16  1  0
 16 17  2  0
 17 18  1  0
 18 19  1  0
 19 20  2  0
 20 21  1  0
 21 22  1  0
  8  4  2  0
 22 14  1  0
 22 18  2  0
  1 23  1  0
  1 24  1  0
  2 25  1  0
  3 26  1  0
  3 27  1  0
  5 28  1  0
  6 29  1  0
  7 30  1  0
 11 31  1  0
 12 32  1  0
 12 33  1  0
 13 34  1  0
 13 35  1  0
 15 36  1  0
 16 37  1  0
 17 38  1  0
 19 39  1  0
 20 40  1  0
 21 41  1  0
M  END
>  <Energy>  (1110) 
466.2131259135009

>  <compound_id>  (1110) 
30265

>  <target_id>  (1110) 
1

>  <reference_id>  (1110) 
123

>  <inspiration_ids>  (1110) 
[40, 123]

>  <energy_score>  (1110) 
363.6417147177533

>  <distance_score>  (1110) 
6.445555608380965

>  <path>  (1110) 
/opt/xchem-fragalysis-2/maxwin/BulkDock/SCRATCH/511023/C30265-P123/C30265-P123.minimised.mol

>  <scratch_subdir>  (1110) 
/opt/xchem-fragalysis-2/maxwin/BulkDock/SCRATCH/511023/C30265-P123

>  <fragmenstein_runtime>  (1110) 
16.11087155342102

>  <fragmenstein_outcome>  (1110) 
too moved

>  <fragmenstein_mode>  (1110) 
expansion

>  <fragmenstein_error>  (1110) 


$$$$
C30266-P40
     RDKit          3D

 36 38  0  0  0  0  0  0  0  0999 V2000
   -6.6654  -10.2015   30.7707 O   0  0  0  0  0  0  0  0  0  0  0  0
   -6.1529  -10.5953   31.7945 C   0  0  0  0  0  0  0  0  0  0  0  0
   -6.0682  -12.2402   32.3617 N   0  0  0  0  0  0  0  0  0  0  0  0
   -6.5858  -13.8645   31.5403 C   0  0  0  0  0  0  0  0  0  0  0  0
   -6.0135  -15.7264   31.8418 C   0  0  0  0  0  0  0  0  0  0  0  0
   -7.1302  -17.2667   32.6494 C   0  0  0  0  0  0  0  0  0  0  0  0
   -8.5516  -17.4909   33.7313 C   0  0  0  0  0  0  0  0  0  0  0  0
   -8.5799  -18.7789   34.2008 C   0  0  0  0  0  0  0  0  0  0  0  0
   -7.4602  -19.3183   33.6410 N   0  0  0  0  0  0  0  0  0  0  0  0
   -6.7875  -18.5718   32.7145 N   0  0  0  0  0  0  0  0  0  0  0  0
   -5.2597   -9.1438   32.6766 C   0  0  0  0  0  0  0  0  0  0  0  0
   -4.0337   -8.6203   31.9581 C   0  0  0  0  0  0  0  0  0  0  0  0
   -2.6914   -8.4435   32.5594 C   0  0  0  0  0  0  0  0  0  0  0  0
   -1.5049   -7.8850   32.0174 C   0  0  0  0  0  0  0  0  0  0  0  0
   -0.5370   -7.3693   32.8642 C   0  0  0  0  0  0  0  0  0  0  0  0
   -0.6985   -7.4926   34.2350 C   0  0  0  0  0  0  0  0  0  0  0  0
   -1.8181   -8.1541   34.8335 C   0  0  0  0  0  0  0  0  0  0  0  0
   -1.5311   -8.6427   36.2589 C   0  0  0  0  0  0  0  0  0  0  0  0
   -0.4288   -9.4661   36.3394 F   0  0  0  0  0  0  0  0  0  0  0  0
   -1.1766   -7.6333   37.1101 F   0  0  0  0  0  0  0  0  0  0  0  0
   -2.5426   -9.3564   36.8378 F   0  0  0  0  0  0  0  0  0  0  0  0
   -2.8845   -8.5938   33.9420 C   0  0  0  0  0  0  0  0  0  0  0  0
   -4.2935   -9.0453   34.0919 N   0  0  0  0  0  0  0  0  0  0  0  0
   -5.6619  -12.2559   33.2764 H   0  0  0  0  0  0  0  0  0  0  0  0
   -6.3482  -13.7548   30.4871 H   0  0  0  0  0  0  0  0  0  0  0  0
   -7.5937  -14.1675   31.7610 H   0  0  0  0  0  0  0  0  0  0  0  0
   -4.9264  -15.7920   31.8470 H   0  0  0  0  0  0  0  0  0  0  0  0
   -5.8766  -15.9821   30.7565 H   0  0  0  0  0  0  0  0  0  0  0  0
   -9.3243  -16.7492   33.9528 H   0  0  0  0  0  0  0  0  0  0  0  0
   -9.2327  -19.3219   34.8619 H   0  0  0  0  0  0  0  0  0  0  0  0
   -7.2123  -20.2970   33.6754 H   0  0  0  0  0  0  0  0  0  0  0  0
   -4.0398   -8.5576   30.9334 H   0  0  0  0  0  0  0  0  0  0  0  0
   -1.4095   -7.6996   30.9540 H   0  0  0  0  0  0  0  0  0  0  0  0
    0.3393   -6.8720   32.4603 H   0  0  0  0  0  0  0  0  0  0  0  0
    0.1082   -7.1471   34.8838 H   0  0  0  0  0  0  0  0  0  0  0  0
   -4.7177   -9.4244   34.9240 H   0  0  0  0  0  0  0  0  0  0  0  0
  1  2  2  0
  2  3  1  0
  3  4  1  0
  4  5  1  0
  5  6  1  0
  6  7  1  0
  7  8  2  0
  8  9  1  0
  9 10  1  0
  2 11  1  0
 11 12  2  0
 12 13  1  0
 13 14  2  0
 14 15  1  0
 15 16  2  0
 16 17  1  0
 17 18  1  0
 18 19  1  0
 18 20  1  0
 18 21  1  0
 17 22  2  0
 22 23  1  0
 10  6  2  0
 23 11  1  0
 22 13  1  0
  3 24  1  0
  4 25  1  0
  4 26  1  0
  5 27  1  0
  5 28  1  0
  7 29  1  0
  8 30  1  0
  9 31  1  0
 12 32  1  0
 14 33  1  0
 15 34  1  0
 16 35  1  0
 23 36  1  0
M  END
>  <Energy>  (1111) 
487.31108049654961

>  <compound_id>  (1111) 
30266

>  <target_id>  (1111) 
1

>  <reference_id>  (1111) 
40

>  <inspiration_ids>  (1111) 
[40, 123]

>  <energy_score>  (1111) 
454.4620091367408

>  <distance_score>  (1111) 
7.037885613165972

>  <path>  (1111) 
/opt/xchem-fragalysis-2/maxwin/BulkDock/SCRATCH/511023/C30266-P40/C30266-P40.minimised.mol

>  <scratch_subdir>  (1111) 
/opt/xchem-fragalysis-2/maxwin/BulkDock/SCRATCH/511023/C30266-P40

>  <fragmenstein_runtime>  (1111) 
9.928876638412476

>  <fragmenstein_outcome>  (1111) 
too moved

>  <fragmenstein_mode>  (1111) 
expansion

>  <fragmenstein_error>  (1111) 


$$$$
C30266-P123
     RDKit          3D

 36 38  0  0  0  0  0  0  0  0999 V2000
   -5.5561  -12.1392   24.8429 O   0  0  0  0  0  0  0  0  0  0  0  0
   -6.6552  -11.7198   25.0508 C   0  0  0  0  0  0  0  0  0  0  0  0
   -7.9190  -12.4030   25.1431 N   0  0  0  0  0  0  0  0  0  0  0  0
   -8.2729  -13.8174   24.9151 C   0  0  0  0  0  0  0  0  0  0  0  0
   -9.1489  -14.4686   26.0063 C   0  0  0  0  0  0  0  0  0  0  0  0
   -9.6004  -15.8970   25.7218 C   0  0  0  0  0  0  0  0  0  0  0  0
  -10.7833  -16.3534   25.0838 C   0  0  0  0  0  0  0  0  0  0  0  0
  -10.6771  -17.7268   25.0383 C   0  0  0  0  0  0  0  0  0  0  0  0
   -9.4778  -18.0242   25.6140 N   0  0  0  0  0  0  0  0  0  0  0  0
   -8.8902  -16.9484   26.1501 N   0  0  0  0  0  0  0  0  0  0  0  0
   -6.8198  -10.2584   25.1510 C   0  0  0  0  0  0  0  0  0  0  0  0
   -6.7190   -9.3162   24.1389 C   0  0  0  0  0  0  0  0  0  0  0  0
   -6.9295   -8.0192   24.6892 C   0  0  0  0  0  0  0  0  0  0  0  0
   -7.0283   -6.7297   24.1373 C   0  0  0  0  0  0  0  0  0  0  0  0
   -7.3621   -5.6538   24.9681 C   0  0  0  0  0  0  0  0  0  0  0  0
   -7.5702   -5.8464   26.3358 C   0  0  0  0  0  0  0  0  0  0  0  0
   -7.4375   -7.1177   26.9347 C   0  0  0  0  0  0  0  0  0  0  0  0
   -7.7878   -7.2943   28.3945 C   0  0  0  0  0  0  0  0  0  0  0  0
   -7.2004   -8.3772   28.9591 F   0  0  0  0  0  0  0  0  0  0  0  0
   -7.4330   -6.2150   29.1443 F   0  0  0  0  0  0  0  0  0  0  0  0
   -9.1287   -7.4490   28.5771 F   0  0  0  0  0  0  0  0  0  0  0  0
   -7.1038   -8.1767   26.0600 C   0  0  0  0  0  0  0  0  0  0  0  0
   -6.8697   -9.5121   26.3138 N   0  0  0  0  0  0  0  0  0  0  0  0
   -8.6571  -11.7186   25.2475 H   0  0  0  0  0  0  0  0  0  0  0  0
   -8.8011  -13.8431   23.9552 H   0  0  0  0  0  0  0  0  0  0  0  0
   -7.3419  -14.3777   24.7831 H   0  0  0  0  0  0  0  0  0  0  0  0
  -10.0436  -13.8531   26.1619 H   0  0  0  0  0  0  0  0  0  0  0  0
   -8.5904  -14.4451   26.9491 H   0  0  0  0  0  0  0  0  0  0  0  0
  -11.5816  -15.7530   24.6701 H   0  0  0  0  0  0  0  0  0  0  0  0
  -11.3051  -18.4966   24.6110 H   0  0  0  0  0  0  0  0  0  0  0  0
   -9.0332  -18.9312   25.7359 H   0  0  0  0  0  0  0  0  0  0  0  0
   -6.5543   -9.5496   23.0942 H   0  0  0  0  0  0  0  0  0  0  0  0
   -6.8935   -6.5770   23.0700 H   0  0  0  0  0  0  0  0  0  0  0  0
   -7.4755   -4.6604   24.5389 H   0  0  0  0  0  0  0  0  0  0  0  0
   -7.8571   -4.9915   26.9493 H   0  0  0  0  0  0  0  0  0  0  0  0
   -6.6484   -9.8593   27.2397 H   0  0  0  0  0  0  0  0  0  0  0  0
  1  2  2  0
  2  3  1  0
  3  4  1  0
  4  5  1  0
  5  6  1  0
  6  7  1  0
  7  8  2  0
  8  9  1  0
  9 10  1  0
  2 11  1  0
 11 12  2  0
 12 13  1  0
 13 14  2  0
 14 15  1  0
 15 16  2  0
 16 17  1  0
 17 18  1  0
 18 19  1  0
 18 20  1  0
 18 21  1  0
 17 22  2  0
 22 23  1  0
 10  6  2  0
 23 11  1  0
 22 13  1  0
  3 24  1  0
  4 25  1  0
  4 26  1  0
  5 27  1  0
  5 28  1  0
  7 29  1  0
  8 30  1  0
  9 31  1  0
 12 32  1  0
 14 33  1  0
 15 34  1  0
 16 35  1  0
 23 36  1  0
M  END
>  <Energy>  (1112) 
35.970074266341079

>  <compound_id>  (1112) 
30266

>  <target_id>  (1112) 
1

>  <reference_id>  (1112) 
123

>  <inspiration_ids>  (1112) 
[40, 123]

>  <energy_score>  (1112) 
3.1210029065469485

>  <distance_score>  (1112) 
10.096773248225992

>  <path>  (1112) 
/opt/xchem-fragalysis-2/maxwin/BulkDock/SCRATCH/511023/C30266-P123/C30266-P123.minimised.mol

>  <scratch_subdir>  (1112) 
/opt/xchem-fragalysis-2/maxwin/BulkDock/SCRATCH/511023/C30266-P123

>  <fragmenstein_runtime>  (1112) 
18.952460765838623

>  <fragmenstein_outcome>  (1112) 
too moved

>  <fragmenstein_mode>  (1112) 
expansion

>  <fragmenstein_error>  (1112) 


$$$$
C30267-P40
     RDKit          3D

 43 45  0  0  0  0  0  0  0  0999 V2000
    0.0851   -7.6259   29.3965 C   0  0  0  0  0  0  0  0  0  0  0  0
   -0.8689   -8.3680   30.1276 O   0  0  0  0  0  0  0  0  0  0  0  0
   -1.7921   -7.4976   30.7624 C   0  0  0  0  0  0  0  0  0  0  0  0
   -2.9365   -8.1164   31.7617 C   0  0  0  0  0  0  0  0  0  0  0  0
   -2.9057   -8.7981   33.2185 N   0  0  0  0  0  0  0  0  0  0  0  0
   -2.8936  -10.4312   33.3770 C   0  0  0  0  0  0  0  0  0  0  0  0
   -4.3616  -12.1285   32.9821 C   0  0  0  0  0  0  0  0  0  0  0  0
   -5.5217  -11.7309   33.0378 O   0  0  0  0  0  0  0  0  0  0  0  0
   -3.5899  -14.0491   32.4328 N   0  0  0  0  0  0  0  0  0  0  0  0
   -4.6429  -15.5965   31.7165 C   0  0  0  0  0  0  0  0  0  0  0  0
   -6.1839  -16.8636   32.2693 C   0  0  0  0  0  0  0  0  0  0  0  0
   -7.0408  -18.4413   32.9505 C   0  0  0  0  0  0  0  0  0  0  0  0
   -6.4952  -19.8008   33.3226 C   0  0  0  0  0  0  0  0  0  0  0  0
   -7.3127  -20.3328   34.3050 C   0  0  0  0  0  0  0  0  0  0  0  0
   -8.3456  -19.4539   34.4219 N   0  0  0  0  0  0  0  0  0  0  0  0
   -8.2195  -18.3272   33.6733 N   0  0  0  0  0  0  0  0  0  0  0  0
   -1.6188   -9.7278   32.3363 C   0  0  0  0  0  0  0  0  0  0  0  0
   -0.8755   -8.5548   33.0503 C   0  0  0  0  0  0  0  0  0  0  0  0
    0.2189   -7.6791   32.9150 C   0  0  0  0  0  0  0  0  0  0  0  0
    0.4318   -6.6494   33.8320 C   0  0  0  0  0  0  0  0  0  0  0  0
   -0.4920   -6.4380   34.8433 C   0  0  0  0  0  0  0  0  0  0  0  0
   -1.6692   -7.1906   34.9001 C   0  0  0  0  0  0  0  0  0  0  0  0
   -1.8310   -8.2071   33.9664 C   0  0  0  0  0  0  0  0  0  0  0  0
   -0.0341   -7.8581   28.3490 H   0  0  0  0  0  0  0  0  0  0  0  0
    0.0444   -6.5440   29.5568 H   0  0  0  0  0  0  0  0  0  0  0  0
    1.0609   -7.9725   29.6803 H   0  0  0  0  0  0  0  0  0  0  0  0
   -1.2835   -6.6338   31.2155 H   0  0  0  0  0  0  0  0  0  0  0  0
   -2.3251   -7.0984   29.9106 H   0  0  0  0  0  0  0  0  0  0  0  0
   -3.8753   -8.4799   31.3984 H   0  0  0  0  0  0  0  0  0  0  0  0
   -2.8449   -7.1621   32.1974 H   0  0  0  0  0  0  0  0  0  0  0  0
   -2.6366  -14.0904   32.3851 H   0  0  0  0  0  0  0  0  0  0  0  0
   -3.8467  -16.1440   31.2707 H   0  0  0  0  0  0  0  0  0  0  0  0
   -5.1892  -15.0586   30.9323 H   0  0  0  0  0  0  0  0  0  0  0  0
   -6.4926  -17.4372   31.3467 H   0  0  0  0  0  0  0  0  0  0  0  0
   -5.3918  -17.4420   32.7595 H   0  0  0  0  0  0  0  0  0  0  0  0
   -5.5491  -20.2390   33.0502 H   0  0  0  0  0  0  0  0  0  0  0  0
   -7.2594  -21.2424   34.8849 H   0  0  0  0  0  0  0  0  0  0  0  0
   -9.1598  -19.5186   35.0188 H   0  0  0  0  0  0  0  0  0  0  0  0
   -1.1979  -10.2052   31.4555 H   0  0  0  0  0  0  0  0  0  0  0  0
    0.8385   -7.7236   32.0418 H   0  0  0  0  0  0  0  0  0  0  0  0
    1.2867   -5.9879   33.7314 H   0  0  0  0  0  0  0  0  0  0  0  0
   -0.3545   -5.6229   35.5501 H   0  0  0  0  0  0  0  0  0  0  0  0
   -2.4409   -6.9269   35.5934 H   0  0  0  0  0  0  0  0  0  0  0  0
  1  2  1  0
  2  3  1  0
  3  4  1  0
  4  5  1  0
  5  6  1  0
  6  7  1  0
  7  8  2  0
  7  9  1  0
  9 10  1  0
 10 11  1  0
 11 12  1  0
 12 13  1  0
 13 14  2  0
 14 15  1  0
 15 16  1  0
  6 17  2  0
 17 18  1  0
 18 19  2  0
 19 20  1  0
 20 21  2  0
 21 22  1  0
 22 23  2  0
 23  5  1  0
 16 12  2  0
 23 18  1  0
  1 24  1  0
  1 25  1  0
  1 26  1  0
  3 27  1  0
  3 28  1  0
  4 29  1  0
  4 30  1  0
  9 31  1  0
 10 32  1  0
 10 33  1  0
 11 34  1  0
 11 35  1  0
 13 36  1  0
 14 37  1  0
 15 38  1  0
 17 39  1  0
 19 40  1  0
 20 41  1  0
 21 42  1  0
 22 43  1  0
M  END
>  <Energy>  (1113) 
1086.8494941804367

>  <compound_id>  (1113) 
30267

>  <target_id>  (1113) 
1

>  <reference_id>  (1113) 
40

>  <inspiration_ids>  (1113) 
[40, 123]

>  <energy_score>  (1113) 
1055.8499628648751

>  <distance_score>  (1113) 
6.6199881606116

>  <path>  (1113) 
/opt/xchem-fragalysis-2/maxwin/BulkDock/SCRATCH/511023/C30267-P40/C30267-P40.minimised.mol

>  <scratch_subdir>  (1113) 
/opt/xchem-fragalysis-2/maxwin/BulkDock/SCRATCH/511023/C30267-P40

>  <fragmenstein_runtime>  (1113) 
25.177529096603394

>  <fragmenstein_outcome>  (1113) 
too moved

>  <fragmenstein_mode>  (1113) 
expansion

>  <fragmenstein_error>  (1113) 


$$$$
C30267-P123
     RDKit          3D

 43 45  0  0  0  0  0  0  0  0999 V2000
   -0.6697   -6.8037   27.0472 C   0  0  0  0  0  0  0  0  0  0  0  0
   -0.3863   -7.7392   28.0886 O   0  0  0  0  0  0  0  0  0  0  0  0
   -0.8124   -7.2207   29.3553 C   0  0  0  0  0  0  0  0  0  0  0  0
   -0.7173   -8.2581   30.4871 C   0  0  0  0  0  0  0  0  0  0  0  0
   -1.7184   -8.1443   31.5819 N   0  0  0  0  0  0  0  0  0  0  0  0
   -2.4555   -9.2189   32.2271 C   0  0  0  0  0  0  0  0  0  0  0  0
   -3.8769   -9.9315   31.9865 C   0  0  0  0  0  0  0  0  0  0  0  0
   -4.7421   -9.3565   32.6169 O   0  0  0  0  0  0  0  0  0  0  0  0
   -4.0676  -11.4028   31.0383 N   0  0  0  0  0  0  0  0  0  0  0  0
   -5.4313  -12.4522   30.8440 C   0  0  0  0  0  0  0  0  0  0  0  0
   -6.9094  -13.8230   31.2080 C   0  0  0  0  0  0  0  0  0  0  0  0
   -7.7373  -15.0324   32.6020 C   0  0  0  0  0  0  0  0  0  0  0  0
   -9.0624  -15.6563   32.9619 C   0  0  0  0  0  0  0  0  0  0  0  0
   -8.9087  -16.6162   33.9608 C   0  0  0  0  0  0  0  0  0  0  0  0
   -7.5903  -16.7705   34.0677 N   0  0  0  0  0  0  0  0  0  0  0  0
   -6.8715  -15.9612   33.2863 N   0  0  0  0  0  0  0  0  0  0  0  0
   -2.1468   -8.9545   33.5809 C   0  0  0  0  0  0  0  0  0  0  0  0
   -1.5865   -7.6617   33.7472 C   0  0  0  0  0  0  0  0  0  0  0  0
   -1.2801   -6.8703   34.8657 C   0  0  0  0  0  0  0  0  0  0  0  0
   -0.7126   -5.6040   34.6945 C   0  0  0  0  0  0  0  0  0  0  0  0
   -0.5065   -5.0904   33.4255 C   0  0  0  0  0  0  0  0  0  0  0  0
   -0.8680   -5.8331   32.3046 C   0  0  0  0  0  0  0  0  0  0  0  0
   -1.4145   -7.1223   32.4902 C   0  0  0  0  0  0  0  0  0  0  0  0
   -1.7209   -6.5230   27.0585 H   0  0  0  0  0  0  0  0  0  0  0  0
   -0.0558   -5.9084   27.1579 H   0  0  0  0  0  0  0  0  0  0  0  0
   -0.4801   -7.2809   26.0851 H   0  0  0  0  0  0  0  0  0  0  0  0
   -0.2083   -6.3362   29.5703 H   0  0  0  0  0  0  0  0  0  0  0  0
   -1.8489   -6.9359   29.2405 H   0  0  0  0  0  0  0  0  0  0  0  0
    0.2199   -8.0994   31.0155 H   0  0  0  0  0  0  0  0  0  0  0  0
   -0.7220   -9.2809   30.0955 H   0  0  0  0  0  0  0  0  0  0  0  0
   -3.1959  -11.6080   30.5511 H   0  0  0  0  0  0  0  0  0  0  0  0
   -5.9621  -11.6096   31.3559 H   0  0  0  0  0  0  0  0  0  0  0  0
   -5.3466  -12.5014   29.7522 H   0  0  0  0  0  0  0  0  0  0  0  0
   -6.2574  -14.5974   30.8088 H   0  0  0  0  0  0  0  0  0  0  0  0
   -7.0526  -13.1056   32.0088 H   0  0  0  0  0  0  0  0  0  0  0  0
  -10.0529  -15.3002   32.7700 H   0  0  0  0  0  0  0  0  0  0  0  0
   -9.6279  -17.1588   34.5528 H   0  0  0  0  0  0  0  0  0  0  0  0
   -7.1027  -17.4277   34.6635 H   0  0  0  0  0  0  0  0  0  0  0  0
   -2.5467   -9.5150   34.4197 H   0  0  0  0  0  0  0  0  0  0  0  0
   -1.5188   -7.2235   35.8650 H   0  0  0  0  0  0  0  0  0  0  0  0
   -0.4885   -4.9991   35.5682 H   0  0  0  0  0  0  0  0  0  0  0  0
   -0.0896   -4.0947   33.3073 H   0  0  0  0  0  0  0  0  0  0  0  0
   -0.7111   -5.3987   31.3284 H   0  0  0  0  0  0  0  0  0  0  0  0
  1  2  1  0
  2  3  1  0
  3  4  1  0
  4  5  1  0
  5  6  1  0
  6  7  1  0
  7  8  2  0
  7  9  1  0
  9 10  1  0
 10 11  1  0
 11 12  1  0
 12 13  1  0
 13 14  2  0
 14 15  1  0
 15 16  1  0
  6 17  2  0
 17 18  1  0
 18 19  2  0
 19 20  1  0
 20 21  2  0
 21 22  1  0
 22 23  2  0
 23  5  1  0
 16 12  2  0
 23 18  1  0
  1 24  1  0
  1 25  1  0
  1 26  1  0
  3 27  1  0
  3 28  1  0
  4 29  1  0
  4 30  1  0
  9 31  1  0
 10 32  1  0
 10 33  1  0
 11 34  1  0
 11 35  1  0
 13 36  1  0
 14 37  1  0
 15 38  1  0
 17 39  1  0
 19 40  1  0
 20 41  1  0
 21 42  1  0
 22 43  1  0
M  END
>  <Energy>  (1114) 
418.1995801965827

>  <compound_id>  (1114) 
30267

>  <target_id>  (1114) 
1

>  <reference_id>  (1114) 
123

>  <inspiration_ids>  (1114) 
[40, 123]

>  <energy_score>  (1114) 
387.200048881026

>  <distance_score>  (1114) 
6.984407053913656

>  <path>  (1114) 
/opt/xchem-fragalysis-2/maxwin/BulkDock/SCRATCH/511023/C30267-P123/C30267-P123.minimised.mol

>  <scratch_subdir>  (1114) 
/opt/xchem-fragalysis-2/maxwin/BulkDock/SCRATCH/511023/C30267-P123

>  <fragmenstein_runtime>  (1114) 
32.24971795082092

>  <fragmenstein_outcome>  (1114) 
too moved

>  <fragmenstein_mode>  (1114) 
expansion

>  <fragmenstein_error>  (1114) 


$$$$
C30268-P40
     RDKit          3D

 33 35  0  0  0  0  0  0  0  0999 V2000
   -2.9349   -8.9263   31.4834 O   0  0  0  0  0  0  0  0  0  0  0  0
   -3.1195   -8.7545   32.6604 C   0  0  0  0  0  0  0  0  0  0  0  0
   -4.4559   -9.1404   33.5799 N   0  0  0  0  0  0  0  0  0  0  0  0
   -6.0090  -10.0528   33.1265 C   0  0  0  0  0  0  0  0  0  0  0  0
   -6.5673  -11.3341   32.0159 C   0  0  0  0  0  0  0  0  0  0  0  0
   -6.4044  -13.0818   31.5292 C   0  0  0  0  0  0  0  0  0  0  0  0
   -7.0512  -14.2793   31.5500 C   0  0  0  0  0  0  0  0  0  0  0  0
   -5.9233  -15.1266   31.5313 C   0  0  0  0  0  0  0  0  0  0  0  0
   -5.7193  -14.8310   30.3040 N   0  0  0  0  0  0  0  0  0  0  0  0
   -6.0413  -13.5475   30.2314 N   0  0  0  0  0  0  0  0  0  0  0  0
   -1.9670   -7.9924   33.2523 C   0  0  0  0  0  0  0  0  0  0  0  0
   -1.6856   -7.6127   34.5451 N   0  0  0  0  0  0  0  0  0  0  0  0
   -0.6011   -6.7493   34.5841 C   0  0  0  0  0  0  0  0  0  0  0  0
   -0.0351   -6.0574   35.6583 C   0  0  0  0  0  0  0  0  0  0  0  0
    1.0678   -5.2337   35.3974 C   0  0  0  0  0  0  0  0  0  0  0  0
    1.5946   -5.1083   34.1146 C   0  0  0  0  0  0  0  0  0  0  0  0
    1.0205   -5.8030   33.0534 C   0  0  0  0  0  0  0  0  0  0  0  0
   -0.0961   -6.6315   33.2958 C   0  0  0  0  0  0  0  0  0  0  0  0
   -0.9335   -7.4218   32.4889 C   0  0  0  0  0  0  0  0  0  0  0  0
   -0.6031   -7.4719   30.6152 Br  0  0  0  0  0  0  0  0  0  0  0  0
   -4.2672   -8.9423   34.5510 H   0  0  0  0  0  0  0  0  0  0  0  0
   -6.6023   -9.2105   32.7416 H   0  0  0  0  0  0  0  0  0  0  0  0
   -6.3633  -10.4158   34.0875 H   0  0  0  0  0  0  0  0  0  0  0  0
   -7.6149  -11.3527   32.3478 H   0  0  0  0  0  0  0  0  0  0  0  0
   -6.5296  -10.7593   31.0959 H   0  0  0  0  0  0  0  0  0  0  0  0
   -8.0197  -14.5655   31.9756 H   0  0  0  0  0  0  0  0  0  0  0  0
   -5.7368  -16.0976   31.8861 H   0  0  0  0  0  0  0  0  0  0  0  0
   -5.5179  -15.4476   29.5177 H   0  0  0  0  0  0  0  0  0  0  0  0
   -2.2011   -7.8917   35.3680 H   0  0  0  0  0  0  0  0  0  0  0  0
   -0.4432   -6.1394   36.6613 H   0  0  0  0  0  0  0  0  0  0  0  0
    1.5167   -4.6757   36.2168 H   0  0  0  0  0  0  0  0  0  0  0  0
    2.4449   -4.4541   33.9401 H   0  0  0  0  0  0  0  0  0  0  0  0
    1.4203   -5.6782   32.0523 H   0  0  0  0  0  0  0  0  0  0  0  0
  1  2  2  0
  2  3  1  0
  3  4  1  0
  4  5  1  0
  5  6  1  0
  6  7  1  0
  7  8  2  0
  8  9  1  0
  9 10  1  0
  2 11  1  0
 11 12  1  0
 12 13  1  0
 13 14  2  0
 14 15  1  0
 15 16  2  0
 16 17  1  0
 17 18  2  0
 18 19  1  0
 19 20  1  0
 10  6  2  0
 19 11  2  0
 18 13  1  0
  3 21  1  0
  4 22  1  0
  4 23  1  0
  5 24  1  0
  5 25  1  0
  7 26  1  0
  8 27  1  0
  9 28  1  0
 12 29  1  0
 14 30  1  0
 15 31  1  0
 16 32  1  0
 17 33  1  0
M  END
>  <Energy>  (1115) 
262.78754059056268

>  <compound_id>  (1115) 
30268

>  <target_id>  (1115) 
1

>  <reference_id>  (1115) 
40

>  <inspiration_ids>  (1115) 
[40, 123]

>  <energy_score>  (1115) 
260.5498146639336

>  <distance_score>  (1115) 
7.927088716884355

>  <path>  (1115) 
/opt/xchem-fragalysis-2/maxwin/BulkDock/SCRATCH/511023/C30268-P40/C30268-P40.minimised.mol

>  <scratch_subdir>  (1115) 
/opt/xchem-fragalysis-2/maxwin/BulkDock/SCRATCH/511023/C30268-P40

>  <fragmenstein_runtime>  (1115) 
9.406641721725464

>  <fragmenstein_outcome>  (1115) 
too moved

>  <fragmenstein_mode>  (1115) 
expansion

>  <fragmenstein_error>  (1115) 


$$$$
C30268-P123
     RDKit          3D

 33 35  0  0  0  0  0  0  0  0999 V2000
   -1.4535  -10.9807   34.2385 O   0  0  0  0  0  0  0  0  0  0  0  0
   -2.4119  -10.5432   34.7699 C   0  0  0  0  0  0  0  0  0  0  0  0
   -3.5803  -11.2390   35.3736 N   0  0  0  0  0  0  0  0  0  0  0  0
   -4.0755  -13.1118   35.4194 C   0  0  0  0  0  0  0  0  0  0  0  0
   -4.5627  -14.4972   34.7803 C   0  0  0  0  0  0  0  0  0  0  0  0
   -6.1987  -15.4522   34.3628 C   0  0  0  0  0  0  0  0  0  0  0  0
   -6.4046  -16.5149   33.3705 C   0  0  0  0  0  0  0  0  0  0  0  0
   -7.3947  -17.3356   33.8608 C   0  0  0  0  0  0  0  0  0  0  0  0
   -7.8853  -16.7174   34.9468 N   0  0  0  0  0  0  0  0  0  0  0  0
   -7.1249  -15.6970   35.3436 N   0  0  0  0  0  0  0  0  0  0  0  0
   -2.4093   -9.0168   34.6723 C   0  0  0  0  0  0  0  0  0  0  0  0
   -2.2526   -7.9900   35.5837 N   0  0  0  0  0  0  0  0  0  0  0  0
   -1.6050   -6.8851   35.0202 C   0  0  0  0  0  0  0  0  0  0  0  0
   -1.1393   -5.6827   35.5634 C   0  0  0  0  0  0  0  0  0  0  0  0
   -0.4585   -4.7768   34.7338 C   0  0  0  0  0  0  0  0  0  0  0  0
   -0.2747   -5.0370   33.3820 C   0  0  0  0  0  0  0  0  0  0  0  0
   -0.7926   -6.2059   32.8331 C   0  0  0  0  0  0  0  0  0  0  0  0
   -1.4593   -7.1310   33.6713 C   0  0  0  0  0  0  0  0  0  0  0  0
   -2.0782   -8.3687   33.4917 C   0  0  0  0  0  0  0  0  0  0  0  0
   -2.2052   -9.0480   31.8086 Br  0  0  0  0  0  0  0  0  0  0  0  0
   -4.1826  -10.5561   35.8180 H   0  0  0  0  0  0  0  0  0  0  0  0
   -3.9097  -13.3779   36.4762 H   0  0  0  0  0  0  0  0  0  0  0  0
   -4.7769  -12.5562   35.0670 H   0  0  0  0  0  0  0  0  0  0  0  0
   -3.7109  -14.6703   34.1260 H   0  0  0  0  0  0  0  0  0  0  0  0
   -4.5022  -14.9586   35.7521 H   0  0  0  0  0  0  0  0  0  0  0  0
   -5.7522  -16.7640   32.5495 H   0  0  0  0  0  0  0  0  0  0  0  0
   -7.7549  -18.3071   33.5803 H   0  0  0  0  0  0  0  0  0  0  0  0
   -8.6680  -16.9912   35.5285 H   0  0  0  0  0  0  0  0  0  0  0  0
   -2.3629   -8.1181   36.5744 H   0  0  0  0  0  0  0  0  0  0  0  0
   -1.3500   -5.4165   36.5878 H   0  0  0  0  0  0  0  0  0  0  0  0
   -0.0995   -3.8412   35.1542 H   0  0  0  0  0  0  0  0  0  0  0  0
    0.2557   -4.3277   32.7547 H   0  0  0  0  0  0  0  0  0  0  0  0
   -0.6400   -6.4157   31.7791 H   0  0  0  0  0  0  0  0  0  0  0  0
  1  2  2  0
  2  3  1  0
  3  4  1  0
  4  5  1  0
  5  6  1  0
  6  7  1  0
  7  8  2  0
  8  9  1  0
  9 10  1  0
  2 11  1  0
 11 12  1  0
 12 13  1  0
 13 14  2  0
 14 15  1  0
 15 16  2  0
 16 17  1  0
 17 18  2  0
 18 19  1  0
 19 20  1  0
 10  6  2  0
 19 11  2  0
 18 13  1  0
  3 21  1  0
  4 22  1  0
  4 23  1  0
  5 24  1  0
  5 25  1  0
  7 26  1  0
  8 27  1  0
  9 28  1  0
 12 29  1  0
 14 30  1  0
 15 31  1  0
 16 32  1  0
 17 33  1  0
M  END
>  <Energy>  (1116) 
257.28931514468269

>  <compound_id>  (1116) 
30268

>  <target_id>  (1116) 
1

>  <reference_id>  (1116) 
123

>  <inspiration_ids>  (1116) 
[40, 123]

>  <energy_score>  (1116) 
255.0515892180503

>  <distance_score>  (1116) 
7.353644975540829

>  <path>  (1116) 
/opt/xchem-fragalysis-2/maxwin/BulkDock/SCRATCH/511023/C30268-P123/C30268-P123.minimised.mol

>  <scratch_subdir>  (1116) 
/opt/xchem-fragalysis-2/maxwin/BulkDock/SCRATCH/511023/C30268-P123

>  <fragmenstein_runtime>  (1116) 
12.601021528244019

>  <fragmenstein_outcome>  (1116) 
too moved

>  <fragmenstein_mode>  (1116) 
expansion

>  <fragmenstein_error>  (1116) 


$$$$
C30269-P40
     RDKit          3D

 33 35  0  0  0  0  0  0  0  0999 V2000
   -6.7005  -10.2092   30.7219 O   0  0  0  0  0  0  0  0  0  0  0  0
   -6.1770  -10.5916   31.7446 C   0  0  0  0  0  0  0  0  0  0  0  0
   -6.0778  -12.2307   32.3316 N   0  0  0  0  0  0  0  0  0  0  0  0
   -6.5945  -13.8674   31.5334 C   0  0  0  0  0  0  0  0  0  0  0  0
   -6.0145  -15.7259   31.8417 C   0  0  0  0  0  0  0  0  0  0  0  0
   -7.1306  -17.2665   32.6494 C   0  0  0  0  0  0  0  0  0  0  0  0
   -8.5517  -17.4910   33.7315 C   0  0  0  0  0  0  0  0  0  0  0  0
   -8.5797  -18.7790   34.2008 C   0  0  0  0  0  0  0  0  0  0  0  0
   -7.4601  -19.3184   33.6406 N   0  0  0  0  0  0  0  0  0  0  0  0
   -6.7875  -18.5713   32.7145 N   0  0  0  0  0  0  0  0  0  0  0  0
   -5.2871   -9.1401   32.5965 C   0  0  0  0  0  0  0  0  0  0  0  0
   -3.9903   -8.6262   31.9392 C   0  0  0  0  0  0  0  0  0  0  0  0
   -2.6873   -8.4976   32.6503 C   0  0  0  0  0  0  0  0  0  0  0  0
   -1.4094   -7.9669   32.3116 C   0  0  0  0  0  0  0  0  0  0  0  0
   -0.8460   -7.6289   30.5366 Br  0  0  0  0  0  0  0  0  0  0  0  0
   -0.5634   -7.5148   33.3278 C   0  0  0  0  0  0  0  0  0  0  0  0
   -0.9583   -7.6111   34.6554 C   0  0  0  0  0  0  0  0  0  0  0  0
   -2.1857   -8.2003   35.0049 C   0  0  0  0  0  0  0  0  0  0  0  0
   -3.0537   -8.6693   33.9932 C   0  0  0  0  0  0  0  0  0  0  0  0
   -4.4429   -9.0602   34.0244 N   0  0  0  0  0  0  0  0  0  0  0  0
   -5.6618  -12.2339   33.2441 H   0  0  0  0  0  0  0  0  0  0  0  0
   -6.3508  -13.7656   30.4794 H   0  0  0  0  0  0  0  0  0  0  0  0
   -7.6011  -14.1737   31.7574 H   0  0  0  0  0  0  0  0  0  0  0  0
   -5.8765  -15.9850   30.7576 H   0  0  0  0  0  0  0  0  0  0  0  0
   -4.9273  -15.7885   31.8467 H   0  0  0  0  0  0  0  0  0  0  0  0
   -9.3246  -16.7496   33.9531 H   0  0  0  0  0  0  0  0  0  0  0  0
   -9.2323  -19.3226   34.8616 H   0  0  0  0  0  0  0  0  0  0  0  0
   -7.2123  -20.2972   33.6743 H   0  0  0  0  0  0  0  0  0  0  0  0
   -3.9378   -8.5141   30.9184 H   0  0  0  0  0  0  0  0  0  0  0  0
    0.3923   -7.0553   33.0952 H   0  0  0  0  0  0  0  0  0  0  0  0
   -0.3004   -7.2632   35.4478 H   0  0  0  0  0  0  0  0  0  0  0  0
   -2.4015   -8.3797   36.0429 H   0  0  0  0  0  0  0  0  0  0  0  0
   -4.9324   -9.4332   34.8206 H   0  0  0  0  0  0  0  0  0  0  0  0
  1  2  2  0
  2  3  1  0
  3  4  1  0
  4  5  1  0
  5  6  1  0
  6  7  1  0
  7  8  2  0
  8  9  1  0
  9 10  1  0
  2 11  1  0
 11 12  2  0
 12 13  1  0
 13 14  2  0
 14 15  1  0
 14 16  1  0
 16 17  2  0
 17 18  1  0
 18 19  2  0
 19 20  1  0
 10  6  2  0
 20 11  1  0
 19 13  1  0
  3 21  1  0
  4 22  1  0
  4 23  1  0
  5 24  1  0
  5 25  1  0
  7 26  1  0
  8 27  1  0
  9 28  1  0
 12 29  1  0
 16 30  1  0
 17 31  1  0
 18 32  1  0
 20 33  1  0
M  END
>  <Energy>  (1117) 
447.23004100322214

>  <compound_id>  (1117) 
30269

>  <target_id>  (1117) 
1

>  <reference_id>  (1117) 
40

>  <inspiration_ids>  (1117) 
[40, 123]

>  <energy_score>  (1117) 
422.9697716161206

>  <distance_score>  (1117) 
7.123387321496769

>  <path>  (1117) 
/opt/xchem-fragalysis-2/maxwin/BulkDock/SCRATCH/511023/C30269-P40/C30269-P40.minimised.mol

>  <scratch_subdir>  (1117) 
/opt/xchem-fragalysis-2/maxwin/BulkDock/SCRATCH/511023/C30269-P40

>  <fragmenstein_runtime>  (1117) 
8.640880584716797

>  <fragmenstein_outcome>  (1117) 
too moved

>  <fragmenstein_mode>  (1117) 
expansion

>  <fragmenstein_error>  (1117) 


$$$$
C30269-P123
     RDKit          3D

 33 35  0  0  0  0  0  0  0  0999 V2000
   -4.8091  -11.9422   30.7806 O   0  0  0  0  0  0  0  0  0  0  0  0
   -5.7328  -11.5809   31.4671 C   0  0  0  0  0  0  0  0  0  0  0  0
   -6.9644  -12.3342   31.9204 N   0  0  0  0  0  0  0  0  0  0  0  0
   -7.4688  -14.1774   31.7074 C   0  0  0  0  0  0  0  0  0  0  0  0
   -7.4101  -15.4898   33.1753 C   0  0  0  0  0  0  0  0  0  0  0  0
   -8.2779  -16.6023   33.7681 C   0  0  0  0  0  0  0  0  0  0  0  0
   -7.6808  -17.8529   34.0623 C   0  0  0  0  0  0  0  0  0  0  0  0
   -7.9946  -18.0767   35.3703 C   0  0  0  0  0  0  0  0  0  0  0  0
   -9.0552  -17.2690   35.6086 N   0  0  0  0  0  0  0  0  0  0  0  0
   -9.3285  -16.4558   34.5897 N   0  0  0  0  0  0  0  0  0  0  0  0
   -5.4961   -9.9907   32.1287 C   0  0  0  0  0  0  0  0  0  0  0  0
   -4.0966   -9.5124   32.0863 C   0  0  0  0  0  0  0  0  0  0  0  0
   -3.6059   -8.7864   33.0951 C   0  0  0  0  0  0  0  0  0  0  0  0
   -2.3552   -8.1841   33.3194 C   0  0  0  0  0  0  0  0  0  0  0  0
   -1.2578   -7.6291   31.8919 Br  0  0  0  0  0  0  0  0  0  0  0  0
   -2.0544   -7.8608   34.6034 C   0  0  0  0  0  0  0  0  0  0  0  0
   -2.9893   -8.2141   35.5666 C   0  0  0  0  0  0  0  0  0  0  0  0
   -4.3084   -8.7169   35.3236 C   0  0  0  0  0  0  0  0  0  0  0  0
   -4.6486   -8.9396   34.0041 C   0  0  0  0  0  0  0  0  0  0  0  0
   -5.8501   -9.3020   33.2978 N   0  0  0  0  0  0  0  0  0  0  0  0
   -7.5847  -11.6929   32.4116 H   0  0  0  0  0  0  0  0  0  0  0  0
   -6.6957  -14.3860   30.9528 H   0  0  0  0  0  0  0  0  0  0  0  0
   -8.4757  -14.4154   31.4045 H   0  0  0  0  0  0  0  0  0  0  0  0
   -6.5077  -16.1007   32.9091 H   0  0  0  0  0  0  0  0  0  0  0  0
   -7.0177  -15.0274   34.0825 H   0  0  0  0  0  0  0  0  0  0  0  0
   -6.9029  -18.3169   33.4954 H   0  0  0  0  0  0  0  0  0  0  0  0
   -7.6056  -18.7632   36.1060 H   0  0  0  0  0  0  0  0  0  0  0  0
   -9.6396  -17.2149   36.4332 H   0  0  0  0  0  0  0  0  0  0  0  0
   -3.3121  -10.0156   31.5220 H   0  0  0  0  0  0  0  0  0  0  0  0
   -1.1249   -7.3775   34.8783 H   0  0  0  0  0  0  0  0  0  0  0  0
   -2.6486   -8.1013   36.5914 H   0  0  0  0  0  0  0  0  0  0  0  0
   -4.9782   -8.9697   36.1352 H   0  0  0  0  0  0  0  0  0  0  0  0
   -6.7367   -9.4200   33.7644 H   0  0  0  0  0  0  0  0  0  0  0  0
  1  2  2  0
  2  3  1  0
  3  4  1  0
  4  5  1  0
  5  6  1  0
  6  7  1  0
  7  8  2  0
  8  9  1  0
  9 10  1  0
  2 11  1  0
 11 12  2  0
 12 13  1  0
 13 14  2  0
 14 15  1  0
 14 16  1  0
 16 17  2  0
 17 18  1  0
 18 19  2  0
 19 20  1  0
 10  6  2  0
 20 11  1  0
 19 13  1  0
  3 21  1  0
  4 22  1  0
  4 23  1  0
  5 24  1  0
  5 25  1  0
  7 26  1  0
  8 27  1  0
  9 28  1  0
 12 29  1  0
 16 30  1  0
 17 31  1  0
 18 32  1  0
 20 33  1  0
M  END
>  <Energy>  (1118) 
242.37625337464132

>  <compound_id>  (1118) 
30269

>  <target_id>  (1118) 
1

>  <reference_id>  (1118) 
123

>  <inspiration_ids>  (1118) 
[40, 123]

>  <energy_score>  (1118) 
218.11598398755774

>  <distance_score>  (1118) 
7.900883435290592

>  <path>  (1118) 
/opt/xchem-fragalysis-2/maxwin/BulkDock/SCRATCH/511023/C30269-P123/C30269-P123.minimised.mol

>  <scratch_subdir>  (1118) 
/opt/xchem-fragalysis-2/maxwin/BulkDock/SCRATCH/511023/C30269-P123

>  <fragmenstein_runtime>  (1118) 
12.251883029937744

>  <fragmenstein_outcome>  (1118) 
too moved

>  <fragmenstein_mode>  (1118) 
expansion

>  <fragmenstein_error>  (1118) 


$$$$
C30270-P40
     RDKit          3D

 46 48  0  0  0  0  0  0  0  0999 V2000
    0.0945   -7.9011   29.2971 C   0  0  0  0  0  0  0  0  0  0  0  0
   -0.2374   -7.1753   30.5736 C   0  0  0  0  0  0  0  0  0  0  0  0
    0.1877   -5.7096   30.5417 C   0  0  0  0  0  0  0  0  0  0  0  0
   -0.1173   -4.9930   31.8547 C   0  0  0  0  0  0  0  0  0  0  0  0
    0.6115   -5.6035   32.9146 O   0  0  0  0  0  0  0  0  0  0  0  0
   -0.0759   -6.3274   33.8496 C   0  0  0  0  0  0  0  0  0  0  0  0
    0.6195   -6.5045   35.0351 C   0  0  0  0  0  0  0  0  0  0  0  0
    0.0666   -7.2520   36.0771 C   0  0  0  0  0  0  0  0  0  0  0  0
   -1.2152   -7.8142   35.9301 C   0  0  0  0  0  0  0  0  0  0  0  0
   -2.0139   -8.6840   36.7127 C   0  0  0  0  0  0  0  0  0  0  0  0
   -3.3057   -9.0934   36.0864 C   0  0  0  0  0  0  0  0  0  0  0  0
   -3.3613  -10.4718   35.9868 C   0  0  0  0  0  0  0  0  0  0  0  0
   -2.3328  -10.9329   36.3746 O   0  0  0  0  0  0  0  0  0  0  0  0
   -4.6710  -11.4105   35.2281 N   0  0  0  0  0  0  0  0  0  0  0  0
   -4.6818  -13.4972   34.6350 C   0  0  0  0  0  0  0  0  0  0  0  0
   -3.8669  -14.9964   35.7887 C   0  0  0  0  0  0  0  0  0  0  0  0
   -3.7684  -16.6905   36.6063 C   0  0  0  0  0  0  0  0  0  0  0  0
   -4.7156  -17.5304   37.3682 C   0  0  0  0  0  0  0  0  0  0  0  0
   -3.9857  -18.5776   37.8757 C   0  0  0  0  0  0  0  0  0  0  0  0
   -2.7004  -18.3272   37.5208 N   0  0  0  0  0  0  0  0  0  0  0  0
   -2.5183  -17.1760   36.8505 N   0  0  0  0  0  0  0  0  0  0  0  0
   -3.0994   -8.4018   34.8608 N   0  0  0  0  0  0  0  0  0  0  0  0
   -1.9092   -7.6467   34.7571 C   0  0  0  0  0  0  0  0  0  0  0  0
   -1.3298   -6.9335   33.6814 C   0  0  0  0  0  0  0  0  0  0  0  0
   -0.7214   -7.7803   28.5991 H   0  0  0  0  0  0  0  0  0  0  0  0
    0.1646   -8.9735   29.4652 H   0  0  0  0  0  0  0  0  0  0  0  0
    1.0153   -7.5394   28.8359 H   0  0  0  0  0  0  0  0  0  0  0  0
    0.2602   -7.6906   31.3975 H   0  0  0  0  0  0  0  0  0  0  0  0
   -1.3156   -7.2518   30.7372 H   0  0  0  0  0  0  0  0  0  0  0  0
   -0.3050   -5.1865   29.7157 H   0  0  0  0  0  0  0  0  0  0  0  0
    1.2682   -5.6613   30.3576 H   0  0  0  0  0  0  0  0  0  0  0  0
    0.2456   -3.9615   31.7778 H   0  0  0  0  0  0  0  0  0  0  0  0
   -1.1908   -4.9182   32.0454 H   0  0  0  0  0  0  0  0  0  0  0  0
    1.6029   -6.0604   35.1624 H   0  0  0  0  0  0  0  0  0  0  0  0
    0.6240   -7.4072   36.9956 H   0  0  0  0  0  0  0  0  0  0  0  0
   -1.6525   -9.1464   37.6283 H   0  0  0  0  0  0  0  0  0  0  0  0
   -5.4882  -10.7887   35.0614 H   0  0  0  0  0  0  0  0  0  0  0  0
   -3.7150  -13.8038   34.0562 H   0  0  0  0  0  0  0  0  0  0  0  0
   -5.2697  -13.4795   33.6550 H   0  0  0  0  0  0  0  0  0  0  0  0
   -4.8137  -15.4722   35.7090 H   0  0  0  0  0  0  0  0  0  0  0  0
   -2.8950  -15.1914   35.3480 H   0  0  0  0  0  0  0  0  0  0  0  0
   -5.7856  -17.4418   37.4831 H   0  0  0  0  0  0  0  0  0  0  0  0
   -4.2614  -19.4481   38.4521 H   0  0  0  0  0  0  0  0  0  0  0  0
   -1.8768  -18.8776   37.7365 H   0  0  0  0  0  0  0  0  0  0  0  0
   -3.4397   -8.8381   34.0234 H   0  0  0  0  0  0  0  0  0  0  0  0
   -1.8511   -6.8847   32.7429 H   0  0  0  0  0  0  0  0  0  0  0  0
  1  2  1  0
  2  3  1  0
  3  4  1  0
  4  5  1  0
  5  6  1  0
  6  7  2  0
  7  8  1  0
  8  9  2  0
  9 10  1  0
 10 11  2  0
 11 12  1  0
 12 13  2  0
 12 14  1  0
 14 15  1  0
 15 16  1  0
 16 17  1  0
 17 18  1  0
 18 19  2  0
 19 20  1  0
 20 21  1  0
 11 22  1  0
 22 23  1  0
 23 24  2  0
 24  6  1  0
 23  9  1  0
 21 17  2  0
  1 25  1  0
  1 26  1  0
  1 27  1  0
  2 28  1  0
  2 29  1  0
  3 30  1  0
  3 31  1  0
  4 32  1  0
  4 33  1  0
  7 34  1  0
  8 35  1  0
 10 36  1  0
 14 37  1  0
 15 38  1  0
 15 39  1  0
 16 40  1  0
 16 41  1  0
 18 42  1  0
 19 43  1  0
 20 44  1  0
 22 45  1  0
 24 46  1  0
M  END
>  <Energy>  (1119) 
495.68982310439787

>  <compound_id>  (1119) 
30270

>  <target_id>  (1119) 
1

>  <reference_id>  (1119) 
40

>  <inspiration_ids>  (1119) 
[40, 123]

>  <energy_score>  (1119) 
466.2873709975977

>  <distance_score>  (1119) 
8.716698193900472

>  <path>  (1119) 
/opt/xchem-fragalysis-2/maxwin/BulkDock/SCRATCH/511023/C30270-P40/C30270-P40.minimised.mol

>  <scratch_subdir>  (1119) 
/opt/xchem-fragalysis-2/maxwin/BulkDock/SCRATCH/511023/C30270-P40

>  <fragmenstein_runtime>  (1119) 
17.853501796722412

>  <fragmenstein_outcome>  (1119) 
too moved

>  <fragmenstein_mode>  (1119) 
expansion

>  <fragmenstein_error>  (1119) 


$$$$
C30270-P123
     RDKit          3D

 46 48  0  0  0  0  0  0  0  0999 V2000
    0.9944  -10.1878   28.5687 C   0  0  0  0  0  0  0  0  0  0  0  0
   -0.2186   -9.2560   28.6077 C   0  0  0  0  0  0  0  0  0  0  0  0
   -0.1782   -7.8021   28.0139 C   0  0  0  0  0  0  0  0  0  0  0  0
   -1.0912   -6.7004   28.6358 C   0  0  0  0  0  0  0  0  0  0  0  0
   -0.5306   -5.4454   29.1973 O   0  0  0  0  0  0  0  0  0  0  0  0
   -0.3737   -5.5090   30.5863 C   0  0  0  0  0  0  0  0  0  0  0  0
    0.6488   -6.2875   30.9076 C   0  0  0  0  0  0  0  0  0  0  0  0
    0.2302   -7.4819   31.4611 C   0  0  0  0  0  0  0  0  0  0  0  0
   -0.8700   -7.6817   32.2532 C   0  0  0  0  0  0  0  0  0  0  0  0
   -1.4433   -8.6664   33.1376 C   0  0  0  0  0  0  0  0  0  0  0  0
   -2.8340   -8.5573   33.0319 C   0  0  0  0  0  0  0  0  0  0  0  0
   -3.4144   -9.6615   32.0796 C   0  0  0  0  0  0  0  0  0  0  0  0
   -2.5708   -9.9999   31.2842 O   0  0  0  0  0  0  0  0  0  0  0  0
   -4.9226  -10.2888   32.3001 N   0  0  0  0  0  0  0  0  0  0  0  0
   -5.7797  -11.7998   31.4912 C   0  0  0  0  0  0  0  0  0  0  0  0
   -6.9849  -13.4873   31.4969 C   0  0  0  0  0  0  0  0  0  0  0  0
   -7.7884  -14.9600   32.6234 C   0  0  0  0  0  0  0  0  0  0  0  0
   -9.1116  -15.6262   32.9565 C   0  0  0  0  0  0  0  0  0  0  0  0
   -8.9464  -16.6097   33.9326 C   0  0  0  0  0  0  0  0  0  0  0  0
   -7.6276  -16.7592   34.0308 N   0  0  0  0  0  0  0  0  0  0  0  0
   -6.9194  -15.8903   33.3097 N   0  0  0  0  0  0  0  0  0  0  0  0
   -2.5434   -7.1314   33.1617 N   0  0  0  0  0  0  0  0  0  0  0  0
   -1.6917   -6.6163   32.2332 C   0  0  0  0  0  0  0  0  0  0  0  0
   -1.3836   -5.4153   31.5420 C   0  0  0  0  0  0  0  0  0  0  0  0
    1.1807  -10.6141   29.5548 H   0  0  0  0  0  0  0  0  0  0  0  0
    1.9085   -9.7425   28.2217 H   0  0  0  0  0  0  0  0  0  0  0  0
    0.8604  -11.0106   27.8900 H   0  0  0  0  0  0  0  0  0  0  0  0
   -0.9274   -9.8438   28.0532 H   0  0  0  0  0  0  0  0  0  0  0  0
   -0.5677   -9.2219   29.6368 H   0  0  0  0  0  0  0  0  0  0  0  0
   -0.4114   -7.8758   26.9447 H   0  0  0  0  0  0  0  0  0  0  0  0
    0.8057   -7.4266   28.0355 H   0  0  0  0  0  0  0  0  0  0  0  0
   -1.7763   -7.1391   29.3522 H   0  0  0  0  0  0  0  0  0  0  0  0
   -1.6910   -6.3452   27.7968 H   0  0  0  0  0  0  0  0  0  0  0  0
    1.5591   -6.1725   30.3516 H   0  0  0  0  0  0  0  0  0  0  0  0
    0.7962   -8.3503   31.2789 H   0  0  0  0  0  0  0  0  0  0  0  0
   -1.1071   -9.6505   33.2739 H   0  0  0  0  0  0  0  0  0  0  0  0
   -5.3567   -9.8437   33.1013 H   0  0  0  0  0  0  0  0  0  0  0  0
   -6.6860  -11.2356   31.5417 H   0  0  0  0  0  0  0  0  0  0  0  0
   -5.1817  -11.9171   30.5771 H   0  0  0  0  0  0  0  0  0  0  0  0
   -6.4173  -14.1458   30.8352 H   0  0  0  0  0  0  0  0  0  0  0  0
   -7.2451  -13.1310   32.4576 H   0  0  0  0  0  0  0  0  0  0  0  0
  -10.1078  -15.2768   32.7874 H   0  0  0  0  0  0  0  0  0  0  0  0
   -9.6588  -17.1771   34.5095 H   0  0  0  0  0  0  0  0  0  0  0  0
   -7.1315  -17.4355   34.5982 H   0  0  0  0  0  0  0  0  0  0  0  0
   -2.5181   -6.7224   34.0881 H   0  0  0  0  0  0  0  0  0  0  0  0
   -1.9590   -4.5082   31.6056 H   0  0  0  0  0  0  0  0  0  0  0  0
  1  2  1  0
  2  3  1  0
  3  4  1  0
  4  5  1  0
  5  6  1  0
  6  7  2  0
  7  8  1  0
  8  9  2  0
  9 10  1  0
 10 11  2  0
 11 12  1  0
 12 13  2  0
 12 14  1  0
 14 15  1  0
 15 16  1  0
 16 17  1  0
 17 18  1  0
 18 19  2  0
 19 20  1  0
 20 21  1  0
 11 22  1  0
 22 23  1  0
 23 24  2  0
 24  6  1  0
 23  9  1  0
 21 17  2  0
  1 25  1  0
  1 26  1  0
  1 27  1  0
  2 28  1  0
  2 29  1  0
  3 30  1  0
  3 31  1  0
  4 32  1  0
  4 33  1  0
  7 34  1  0
  8 35  1  0
 10 36  1  0
 14 37  1  0
 15 38  1  0
 15 39  1  0
 16 40  1  0
 16 41  1  0
 18 42  1  0
 19 43  1  0
 20 44  1  0
 22 45  1  0
 24 46  1  0
M  END
>  <Energy>  (1120) 
541.27092181773389

>  <compound_id>  (1120) 
30270

>  <target_id>  (1120) 
1

>  <reference_id>  (1120) 
123

>  <inspiration_ids>  (1120) 
[40, 123]

>  <energy_score>  (1120) 
511.86846971094604

>  <distance_score>  (1120) 
6.4558089459748125

>  <path>  (1120) 
/opt/xchem-fragalysis-2/maxwin/BulkDock/SCRATCH/511023/C30270-P123/C30270-P123.minimised.mol

>  <scratch_subdir>  (1120) 
/opt/xchem-fragalysis-2/maxwin/BulkDock/SCRATCH/511023/C30270-P123

>  <fragmenstein_runtime>  (1120) 
24.774117469787598

>  <fragmenstein_outcome>  (1120) 
too moved

>  <fragmenstein_mode>  (1120) 
expansion

>  <fragmenstein_error>  (1120) 


$$$$
C30271-P40
     RDKit          3D

 33 35  0  0  0  0  0  0  0  0999 V2000
   -2.8389   -8.9316   31.4771 O   0  0  0  0  0  0  0  0  0  0  0  0
   -3.0406   -8.7283   32.6492 C   0  0  0  0  0  0  0  0  0  0  0  0
   -4.3415   -9.0823   33.5654 N   0  0  0  0  0  0  0  0  0  0  0  0
   -5.9559   -9.7858   33.1016 C   0  0  0  0  0  0  0  0  0  0  0  0
   -6.4881  -10.8958   32.0947 C   0  0  0  0  0  0  0  0  0  0  0  0
   -6.9249  -12.3810   32.4042 C   0  0  0  0  0  0  0  0  0  0  0  0
   -6.7829  -13.7249   31.5798 C   0  0  0  0  0  0  0  0  0  0  0  0
   -7.9729  -14.4806   31.9740 C   0  0  0  0  0  0  0  0  0  0  0  0
   -8.6679  -13.7233   32.9011 N   0  0  0  0  0  0  0  0  0  0  0  0
   -8.0359  -12.5015   33.1764 N   0  0  0  0  0  0  0  0  0  0  0  0
   -1.9165   -7.9403   33.2253 C   0  0  0  0  0  0  0  0  0  0  0  0
   -1.1459   -7.1290   32.3825 C   0  0  0  0  0  0  0  0  0  0  0  0
   -0.0926   -6.5473   33.0921 C   0  0  0  0  0  0  0  0  0  0  0  0
    0.9589   -5.6861   32.7279 C   0  0  0  0  0  0  0  0  0  0  0  0
    1.8838   -5.3169   33.7008 C   0  0  0  0  0  0  0  0  0  0  0  0
    1.7527   -5.8012   34.9970 C   0  0  0  0  0  0  0  0  0  0  0  0
    2.6620   -5.4452   35.9150 F   0  0  0  0  0  0  0  0  0  0  0  0
    0.7152   -6.6581   35.3782 C   0  0  0  0  0  0  0  0  0  0  0  0
   -0.2122   -7.0166   34.3969 C   0  0  0  0  0  0  0  0  0  0  0  0
   -1.3239   -7.8486   34.4553 N   0  0  0  0  0  0  0  0  0  0  0  0
   -4.1518   -8.8492   34.5286 H   0  0  0  0  0  0  0  0  0  0  0  0
   -6.2781  -10.2544   34.0325 H   0  0  0  0  0  0  0  0  0  0  0  0
   -6.4526   -8.8797   32.7296 H   0  0  0  0  0  0  0  0  0  0  0  0
   -7.4692  -10.4595   31.8315 H   0  0  0  0  0  0  0  0  0  0  0  0
   -5.9969  -10.8761   31.1607 H   0  0  0  0  0  0  0  0  0  0  0  0
   -6.0898  -14.0235   30.8099 H   0  0  0  0  0  0  0  0  0  0  0  0
   -8.3610  -15.4375   32.0831 H   0  0  0  0  0  0  0  0  0  0  0  0
   -9.4981  -14.0097   33.4106 H   0  0  0  0  0  0  0  0  0  0  0  0
   -1.3373   -6.9989   31.3247 H   0  0  0  0  0  0  0  0  0  0  0  0
    1.0473   -5.3106   31.7132 H   0  0  0  0  0  0  0  0  0  0  0  0
    2.7045   -4.6481   33.4607 H   0  0  0  0  0  0  0  0  0  0  0  0
    0.6454   -7.0145   36.3996 H   0  0  0  0  0  0  0  0  0  0  0  0
   -1.5195   -8.4835   35.2181 H   0  0  0  0  0  0  0  0  0  0  0  0
  1  2  2  0
  2  3  1  0
  3  4  1  0
  4  5  1  0
  5  6  1  0
  6  7  1  0
  7  8  2  0
  8  9  1  0
  9 10  1  0
  2 11  1  0
 11 12  2  0
 12 13  1  0
 13 14  2  0
 14 15  1  0
 15 16  2  0
 16 17  1  0
 16 18  1  0
 18 19  2  0
 19 20  1  0
 10  6  2  0
 20 11  1  0
 19 13  1  0
  3 21  1  0
  4 22  1  0
  4 23  1  0
  5 24  1  0
  5 25  1  0
  7 26  1  0
  8 27  1  0
  9 28  1  0
 12 29  1  0
 14 30  1  0
 15 31  1  0
 18 32  1  0
 20 33  1  0
M  END
>  <Energy>  (1121) 
133.60455337354887

>  <compound_id>  (1121) 
30271

>  <target_id>  (1121) 
1

>  <reference_id>  (1121) 
40

>  <inspiration_ids>  (1121) 
[40, 123]

>  <energy_score>  (1121) 
126.70553185389815

>  <distance_score>  (1121) 
7.9782931184239105

>  <path>  (1121) 
/opt/xchem-fragalysis-2/maxwin/BulkDock/SCRATCH/511023/C30271-P40/C30271-P40.minimised.mol

>  <scratch_subdir>  (1121) 
/opt/xchem-fragalysis-2/maxwin/BulkDock/SCRATCH/511023/C30271-P40

>  <fragmenstein_runtime>  (1121) 
14.270926713943481

>  <fragmenstein_outcome>  (1121) 
too moved

>  <fragmenstein_mode>  (1121) 
expansion

>  <fragmenstein_error>  (1121) 


$$$$
C30271-P123
     RDKit          3D

 33 35  0  0  0  0  0  0  0  0999 V2000
   -0.8811  -12.4568   31.2227 O   0  0  0  0  0  0  0  0  0  0  0  0
   -1.8203  -12.0157   30.5412 C   0  0  0  0  0  0  0  0  0  0  0  0
   -3.0858  -13.0862   29.7666 N   0  0  0  0  0  0  0  0  0  0  0  0
   -3.3934  -15.0607   29.8917 C   0  0  0  0  0  0  0  0  0  0  0  0
   -5.2642  -15.8719   30.2140 C   0  0  0  0  0  0  0  0  0  0  0  0
   -5.7995  -16.5039   32.0375 C   0  0  0  0  0  0  0  0  0  0  0  0
   -6.8977  -16.0560   33.1779 C   0  0  0  0  0  0  0  0  0  0  0  0
   -7.3506  -17.0679   33.9679 C   0  0  0  0  0  0  0  0  0  0  0  0
   -6.8769  -18.0634   33.2407 N   0  0  0  0  0  0  0  0  0  0  0  0
   -5.8391  -17.7798   32.4311 N   0  0  0  0  0  0  0  0  0  0  0  0
   -1.7310  -10.5087   30.4830 C   0  0  0  0  0  0  0  0  0  0  0  0
   -0.7671   -9.6955   29.7780 C   0  0  0  0  0  0  0  0  0  0  0  0
   -0.7715   -8.3189   30.3335 C   0  0  0  0  0  0  0  0  0  0  0  0
   -0.3672   -7.0402   29.8839 C   0  0  0  0  0  0  0  0  0  0  0  0
   -0.3657   -5.9614   30.7704 C   0  0  0  0  0  0  0  0  0  0  0  0
   -0.8800   -6.1219   32.0472 C   0  0  0  0  0  0  0  0  0  0  0  0
   -0.8914   -5.0720   32.8783 F   0  0  0  0  0  0  0  0  0  0  0  0
   -1.4622   -7.3213   32.4605 C   0  0  0  0  0  0  0  0  0  0  0  0
   -1.4378   -8.3922   31.5596 C   0  0  0  0  0  0  0  0  0  0  0  0
   -2.0192   -9.6603   31.6264 N   0  0  0  0  0  0  0  0  0  0  0  0
   -3.7923  -12.4984   29.3353 H   0  0  0  0  0  0  0  0  0  0  0  0
   -2.6775  -15.5900   30.5463 H   0  0  0  0  0  0  0  0  0  0  0  0
   -3.0778  -15.4417   28.9566 H   0  0  0  0  0  0  0  0  0  0  0  0
   -5.9035  -14.9997   30.0727 H   0  0  0  0  0  0  0  0  0  0  0  0
   -5.4173  -16.7192   29.5634 H   0  0  0  0  0  0  0  0  0  0  0  0
   -7.5767  -15.2208   33.0903 H   0  0  0  0  0  0  0  0  0  0  0  0
   -8.1374  -17.1508   34.7022 H   0  0  0  0  0  0  0  0  0  0  0  0
   -7.1622  -19.0393   33.2641 H   0  0  0  0  0  0  0  0  0  0  0  0
   -0.2049  -10.0160   28.9111 H   0  0  0  0  0  0  0  0  0  0  0  0
    0.0179   -6.9110   28.8779 H   0  0  0  0  0  0  0  0  0  0  0  0
    0.0273   -4.9967   30.4665 H   0  0  0  0  0  0  0  0  0  0  0  0
   -1.9129   -7.3985   33.4425 H   0  0  0  0  0  0  0  0  0  0  0  0
   -2.5456   -9.9671   32.4265 H   0  0  0  0  0  0  0  0  0  0  0  0
  1  2  2  0
  2  3  1  0
  3  4  1  0
  4  5  1  0
  5  6  1  0
  6  7  1  0
  7  8  2  0
  8  9  1  0
  9 10  1  0
  2 11  1  0
 11 12  2  0
 12 13  1  0
 13 14  2  0
 14 15  1  0
 15 16  2  0
 16 17  1  0
 16 18  1  0
 18 19  2  0
 19 20  1  0
 10  6  2  0
 20 11  1  0
 19 13  1  0
  3 21  1  0
  4 22  1  0
  4 23  1  0
  5 24  1  0
  5 25  1  0
  7 26  1  0
  8 27  1  0
  9 28  1  0
 12 29  1  0
 14 30  1  0
 15 31  1  0
 18 32  1  0
 20 33  1  0
M  END
>  <Energy>  (1122) 
335.33391514690135

>  <compound_id>  (1122) 
30271

>  <target_id>  (1122) 
1

>  <reference_id>  (1122) 
123

>  <inspiration_ids>  (1122) 
[40, 123]

>  <energy_score>  (1122) 
328.43489362724796

>  <distance_score>  (1122) 
6.7697657806527864

>  <path>  (1122) 
/opt/xchem-fragalysis-2/maxwin/BulkDock/SCRATCH/511023/C30271-P123/C30271-P123.minimised.mol

>  <scratch_subdir>  (1122) 
/opt/xchem-fragalysis-2/maxwin/BulkDock/SCRATCH/511023/C30271-P123

>  <fragmenstein_runtime>  (1122) 
12.460957765579224

>  <fragmenstein_outcome>  (1122) 
too moved

>  <fragmenstein_mode>  (1122) 
expansion

>  <fragmenstein_error>  (1122) 


$$$$
C30272-P40
     RDKit          3D

 36 38  0  0  0  0  0  0  0  0999 V2000
   -2.9332   -8.8937   31.5419 O   0  0  0  0  0  0  0  0  0  0  0  0
   -3.1187   -8.7636   32.7340 C   0  0  0  0  0  0  0  0  0  0  0  0
   -4.4306   -9.1955   33.6570 N   0  0  0  0  0  0  0  0  0  0  0  0
   -6.0016  -10.0800   33.1863 C   0  0  0  0  0  0  0  0  0  0  0  0
   -6.5970  -11.3624   32.0929 C   0  0  0  0  0  0  0  0  0  0  0  0
   -6.3995  -13.0843   31.6342 C   0  0  0  0  0  0  0  0  0  0  0  0
   -5.9499  -13.7601   30.3411 C   0  0  0  0  0  0  0  0  0  0  0  0
   -5.4926  -15.0447   30.4996 C   0  0  0  0  0  0  0  0  0  0  0  0
   -6.0661  -15.1187   31.6270 N   0  0  0  0  0  0  0  0  0  0  0  0
   -7.1252  -14.2098   31.6416 N   0  0  0  0  0  0  0  0  0  0  0  0
   -1.9897   -8.0018   33.3406 C   0  0  0  0  0  0  0  0  0  0  0  0
   -1.4262   -7.6613   34.5515 C   0  0  0  0  0  0  0  0  0  0  0  0
   -0.3208   -6.7703   34.3033 C   0  0  0  0  0  0  0  0  0  0  0  0
    0.6112   -6.0996   35.1121 C   0  0  0  0  0  0  0  0  0  0  0  0
    1.5540   -5.2410   34.5189 C   0  0  0  0  0  0  0  0  0  0  0  0
    1.5951   -5.0366   33.1343 C   0  0  0  0  0  0  0  0  0  0  0  0
    2.5957   -4.0770   32.5350 C   0  0  0  0  0  0  0  0  0  0  0  0
    3.8041   -4.1159   33.1616 F   0  0  0  0  0  0  0  0  0  0  0  0
    2.1809   -2.7842   32.5841 F   0  0  0  0  0  0  0  0  0  0  0  0
    2.8554   -4.3426   31.2221 F   0  0  0  0  0  0  0  0  0  0  0  0
    0.6838   -5.7138   32.3141 C   0  0  0  0  0  0  0  0  0  0  0  0
   -0.2332   -6.5704   32.9335 C   0  0  0  0  0  0  0  0  0  0  0  0
   -1.1857   -7.3682   32.3891 N   0  0  0  0  0  0  0  0  0  0  0  0
   -4.3005   -8.8731   34.6044 H   0  0  0  0  0  0  0  0  0  0  0  0
   -6.3817  -10.4169   34.1471 H   0  0  0  0  0  0  0  0  0  0  0  0
   -6.5614   -9.2296   32.7691 H   0  0  0  0  0  0  0  0  0  0  0  0
   -7.6474  -11.3673   32.4135 H   0  0  0  0  0  0  0  0  0  0  0  0
   -6.5376  -10.8017   31.1651 H   0  0  0  0  0  0  0  0  0  0  0  0
   -5.7221  -13.1538   29.5304 H   0  0  0  0  0  0  0  0  0  0  0  0
   -5.0088  -15.8867   30.0338 H   0  0  0  0  0  0  0  0  0  0  0  0
   -6.0684  -15.9818   32.1377 H   0  0  0  0  0  0  0  0  0  0  0  0
   -1.7254   -8.0329   35.5184 H   0  0  0  0  0  0  0  0  0  0  0  0
    0.5895   -6.2184   36.1924 H   0  0  0  0  0  0  0  0  0  0  0  0
    2.2544   -4.7119   35.1663 H   0  0  0  0  0  0  0  0  0  0  0  0
    0.6878   -5.5773   31.2362 H   0  0  0  0  0  0  0  0  0  0  0  0
   -1.3742   -7.4674   31.4019 H   0  0  0  0  0  0  0  0  0  0  0  0
  1  2  2  0
  2  3  1  0
  3  4  1  0
  4  5  1  0
  5  6  1  0
  6  7  1  0
  7  8  2  0
  8  9  1  0
  9 10  1  0
  2 11  1  0
 11 12  2  0
 12 13  1  0
 13 14  2  0
 14 15  1  0
 15 16  2  0
 16 17  1  0
 17 18  1  0
 17 19  1  0
 17 20  1  0
 16 21  1  0
 21 22  2  0
 22 23  1  0
 10  6  2  0
 23 11  1  0
 22 13  1  0
  3 24  1  0
  4 25  1  0
  4 26  1  0
  5 27  1  0
  5 28  1  0
  7 29  1  0
  8 30  1  0
  9 31  1  0
 12 32  1  0
 14 33  1  0
 15 34  1  0
 21 35  1  0
 23 36  1  0
M  END
>  <Energy>  (1123) 
276.18839618083967

>  <compound_id>  (1123) 
30272

>  <target_id>  (1123) 
1

>  <reference_id>  (1123) 
40

>  <inspiration_ids>  (1123) 
[40, 123]

>  <energy_score>  (1123) 
239.90393676325448

>  <distance_score>  (1123) 
7.927159543103924

>  <path>  (1123) 
/opt/xchem-fragalysis-2/maxwin/BulkDock/SCRATCH/511023/C30272-P40/C30272-P40.minimised.mol

>  <scratch_subdir>  (1123) 
/opt/xchem-fragalysis-2/maxwin/BulkDock/SCRATCH/511023/C30272-P40

>  <fragmenstein_runtime>  (1123) 
21.888561725616455

>  <fragmenstein_outcome>  (1123) 
too moved

>  <fragmenstein_mode>  (1123) 
expansion

>  <fragmenstein_error>  (1123) 


$$$$
C30272-P123
     RDKit          3D

 36 38  0  0  0  0  0  0  0  0999 V2000
   -2.1295  -11.0048   30.4976 O   0  0  0  0  0  0  0  0  0  0  0  0
   -3.1597  -10.7836   31.1156 C   0  0  0  0  0  0  0  0  0  0  0  0
   -4.6710  -11.6476   31.0502 N   0  0  0  0  0  0  0  0  0  0  0  0
   -5.0685  -12.9887   30.2692 C   0  0  0  0  0  0  0  0  0  0  0  0
   -6.0716  -14.6204   30.7556 C   0  0  0  0  0  0  0  0  0  0  0  0
   -6.0316  -15.9743   32.2479 C   0  0  0  0  0  0  0  0  0  0  0  0
   -7.1666  -15.9906   33.3102 C   0  0  0  0  0  0  0  0  0  0  0  0
   -7.3329  -17.2213   33.8511 C   0  0  0  0  0  0  0  0  0  0  0  0
   -6.5963  -17.9034   32.9599 N   0  0  0  0  0  0  0  0  0  0  0  0
   -5.6254  -17.2107   32.3264 N   0  0  0  0  0  0  0  0  0  0  0  0
   -2.9518   -9.4674   32.1163 C   0  0  0  0  0  0  0  0  0  0  0  0
   -2.8194   -8.1623   31.6742 C   0  0  0  0  0  0  0  0  0  0  0  0
   -1.7359   -7.4955   32.2247 C   0  0  0  0  0  0  0  0  0  0  0  0
   -0.9907   -6.3705   31.8523 C   0  0  0  0  0  0  0  0  0  0  0  0
   -0.2908   -5.6998   32.8357 C   0  0  0  0  0  0  0  0  0  0  0  0
   -0.3877   -6.1201   34.1657 C   0  0  0  0  0  0  0  0  0  0  0  0
    0.3123   -5.3088   35.2229 C   0  0  0  0  0  0  0  0  0  0  0  0
   -0.5420   -4.8626   36.1802 F   0  0  0  0  0  0  0  0  0  0  0  0
    1.2693   -6.0213   35.8780 F   0  0  0  0  0  0  0  0  0  0  0  0
    0.9451   -4.1961   34.7520 F   0  0  0  0  0  0  0  0  0  0  0  0
   -1.1082   -7.2997   34.5089 C   0  0  0  0  0  0  0  0  0  0  0  0
   -1.6925   -8.0415   33.4784 C   0  0  0  0  0  0  0  0  0  0  0  0
   -2.2843   -9.3080   33.3585 N   0  0  0  0  0  0  0  0  0  0  0  0
   -5.3643  -11.1696   31.6212 H   0  0  0  0  0  0  0  0  0  0  0  0
   -4.0892  -13.2513   29.8953 H   0  0  0  0  0  0  0  0  0  0  0  0
   -5.5463  -12.5498   29.4167 H   0  0  0  0  0  0  0  0  0  0  0  0
   -7.0323  -14.1444   30.9564 H   0  0  0  0  0  0  0  0  0  0  0  0
   -5.8970  -15.2911   29.9200 H   0  0  0  0  0  0  0  0  0  0  0  0
   -7.9563  -15.2992   33.1878 H   0  0  0  0  0  0  0  0  0  0  0  0
   -8.0788  -17.6727   34.4866 H   0  0  0  0  0  0  0  0  0  0  0  0
   -6.6463  -18.9031   32.7811 H   0  0  0  0  0  0  0  0  0  0  0  0
   -3.2753   -7.7559   30.8152 H   0  0  0  0  0  0  0  0  0  0  0  0
   -0.9748   -6.0055   30.8331 H   0  0  0  0  0  0  0  0  0  0  0  0
    0.2917   -4.8201   32.5701 H   0  0  0  0  0  0  0  0  0  0  0  0
   -1.2356   -7.5899   35.5417 H   0  0  0  0  0  0  0  0  0  0  0  0
   -2.1735  -10.0312   34.0550 H   0  0  0  0  0  0  0  0  0  0  0  0
  1  2  2  0
  2  3  1  0
  3  4  1  0
  4  5  1  0
  5  6  1  0
  6  7  1  0
  7  8  2  0
  8  9  1  0
  9 10  1  0
  2 11  1  0
 11 12  2  0
 12 13  1  0
 13 14  2  0
 14 15  1  0
 15 16  2  0
 16 17  1  0
 17 18  1  0
 17 19  1  0
 17 20  1  0
 16 21  1  0
 21 22  2  0
 22 23  1  0
 10  6  2  0
 23 11  1  0
 22 13  1  0
  3 24  1  0
  4 25  1  0
  4 26  1  0
  5 27  1  0
  5 28  1  0
  7 29  1  0
  8 30  1  0
  9 31  1  0
 12 32  1  0
 14 33  1  0
 15 34  1  0
 21 35  1  0
 23 36  1  0
M  END
>  <Energy>  (1124) 
303.10228008289232

>  <compound_id>  (1124) 
30272

>  <target_id>  (1124) 
1

>  <reference_id>  (1124) 
123

>  <inspiration_ids>  (1124) 
[40, 123]

>  <energy_score>  (1124) 
266.81782066531156

>  <distance_score>  (1124) 
7.05260653374689

>  <path>  (1124) 
/opt/xchem-fragalysis-2/maxwin/BulkDock/SCRATCH/511023/C30272-P123/C30272-P123.minimised.mol

>  <scratch_subdir>  (1124) 
/opt/xchem-fragalysis-2/maxwin/BulkDock/SCRATCH/511023/C30272-P123

>  <fragmenstein_runtime>  (1124) 
14.34011960029602

>  <fragmenstein_outcome>  (1124) 
too moved

>  <fragmenstein_mode>  (1124) 
expansion

>  <fragmenstein_error>  (1124) 


$$$$
C30273-P40
     RDKit          3D

 46 48  0  0  0  0  0  0  0  0999 V2000
   -6.3973  -10.4622   29.6857 C   0  0  0  0  0  0  0  0  0  0  0  0
   -5.2431  -12.1762   29.3613 C   0  0  0  0  0  0  0  0  0  0  0  0
   -3.2500  -11.8070   29.1674 N   0  0  0  0  0  0  0  0  0  0  0  0
   -2.1343  -10.5929   30.0249 C   0  0  0  0  0  0  0  0  0  0  0  0
   -2.4655   -9.8253   30.9952 O   0  0  0  0  0  0  0  0  0  0  0  0
   -0.7502  -10.2625   29.5940 C   0  0  0  0  0  0  0  0  0  0  0  0
   -0.2849   -8.7513   29.8794 N   0  0  0  0  0  0  0  0  0  0  0  0
    0.4770   -8.0116   28.9874 C   0  0  0  0  0  0  0  0  0  0  0  0
    0.6144   -6.7082   29.3761 C   0  0  0  0  0  0  0  0  0  0  0  0
    0.0255   -6.6007   30.6335 C   0  0  0  0  0  0  0  0  0  0  0  0
   -0.0510   -5.5158   31.5314 C   0  0  0  0  0  0  0  0  0  0  0  0
   -0.5614   -5.7078   32.8073 C   0  0  0  0  0  0  0  0  0  0  0  0
   -0.9869   -6.9666   33.1817 C   0  0  0  0  0  0  0  0  0  0  0  0
   -0.9505   -8.0385   32.2818 C   0  0  0  0  0  0  0  0  0  0  0  0
   -0.4597   -7.8778   30.9785 C   0  0  0  0  0  0  0  0  0  0  0  0
   -5.9518  -13.9724   30.4595 C   0  0  0  0  0  0  0  0  0  0  0  0
   -6.5345  -13.3360   31.6930 C   0  0  0  0  0  0  0  0  0  0  0  0
   -5.5148  -15.8020   31.3444 N   0  0  0  0  0  0  0  0  0  0  0  0
   -6.6379  -17.1408   32.3624 C   0  0  0  0  0  0  0  0  0  0  0  0
   -7.7822  -16.8132   32.5914 O   0  0  0  0  0  0  0  0  0  0  0  0
   -6.4068  -18.8913   32.9919 C   0  0  0  0  0  0  0  0  0  0  0  0
   -7.5476  -19.4155   33.9097 C   0  0  0  0  0  0  0  0  0  0  0  0
   -7.1993  -20.6195   34.4610 C   0  0  0  0  0  0  0  0  0  0  0  0
   -6.0507  -20.9339   33.8378 N   0  0  0  0  0  0  0  0  0  0  0  0
   -5.5276  -19.9694   33.0556 N   0  0  0  0  0  0  0  0  0  0  0  0
   -6.6400   -9.7968   28.8366 H   0  0  0  0  0  0  0  0  0  0  0  0
   -6.2635   -9.5759   30.2912 H   0  0  0  0  0  0  0  0  0  0  0  0
   -7.3540  -10.4525   30.1930 H   0  0  0  0  0  0  0  0  0  0  0  0
   -5.5205  -12.0268   28.3340 H   0  0  0  0  0  0  0  0  0  0  0  0
   -2.7642  -12.2114   28.3962 H   0  0  0  0  0  0  0  0  0  0  0  0
   -0.6849  -10.2399   28.5333 H   0  0  0  0  0  0  0  0  0  0  0  0
   -0.2514  -10.9784   30.1870 H   0  0  0  0  0  0  0  0  0  0  0  0
    0.9685   -8.4203   28.1420 H   0  0  0  0  0  0  0  0  0  0  0  0
    1.1550   -5.9327   28.8472 H   0  0  0  0  0  0  0  0  0  0  0  0
    0.3209   -4.5362   31.2420 H   0  0  0  0  0  0  0  0  0  0  0  0
   -0.6179   -4.8805   33.5104 H   0  0  0  0  0  0  0  0  0  0  0  0
   -1.3739   -7.1334   34.1853 H   0  0  0  0  0  0  0  0  0  0  0  0
   -1.3055   -8.9901   32.6346 H   0  0  0  0  0  0  0  0  0  0  0  0
   -4.9203  -14.2139   30.4296 H   0  0  0  0  0  0  0  0  0  0  0  0
   -7.3522  -14.0390   31.7840 H   0  0  0  0  0  0  0  0  0  0  0  0
   -6.7761  -12.2817   31.6723 H   0  0  0  0  0  0  0  0  0  0  0  0
   -6.0209  -13.2515   32.6394 H   0  0  0  0  0  0  0  0  0  0  0  0
   -4.5638  -16.1482   31.2907 H   0  0  0  0  0  0  0  0  0  0  0  0
   -8.4687  -18.8717   34.0990 H   0  0  0  0  0  0  0  0  0  0  0  0
   -7.6864  -21.2827   35.1577 H   0  0  0  0  0  0  0  0  0  0  0  0
   -5.5174  -21.7904   33.9423 H   0  0  0  0  0  0  0  0  0  0  0  0
  1  2  1  0
  2  3  1  0
  3  4  1  0
  4  5  2  0
  4  6  1  0
  6  7  1  0
  7  8  1  0
  8  9  2  0
  9 10  1  0
 10 11  2  0
 11 12  1  0
 12 13  2  0
 13 14  1  0
 14 15  2  0
  2 16  1  0
 16 17  1  0
 16 18  1  0
 18 19  1  0
 19 20  2  0
 19 21  1  0
 21 22  1  0
 22 23  2  0
 23 24  1  0
 24 25  1  0
 15  7  1  0
 25 21  2  0
 15 10  1  0
  1 26  1  0
  1 27  1  0
  1 28  1  0
  2 29  1  0
  3 30  1  0
  6 31  1  0
  6 32  1  0
  8 33  1  0
  9 34  1  0
 11 35  1  0
 12 36  1  0
 13 37  1  0
 14 38  1  0
 16 39  1  0
 17 40  1  0
 17 41  1  0
 17 42  1  0
 18 43  1  0
 22 44  1  0
 23 45  1  0
 24 46  1  0
M  END
>  <Energy>  (1125) 
903.59996087219815

>  <compound_id>  (1125) 
30273

>  <target_id>  (1125) 
1

>  <reference_id>  (1125) 
40

>  <inspiration_ids>  (1125) 
[40, 123]

>  <energy_score>  (1125) 
813.2064802458902

>  <distance_score>  (1125) 
4.9563186723429205

>  <path>  (1125) 
/opt/xchem-fragalysis-2/maxwin/BulkDock/SCRATCH/511023/C30273-P40/C30273-P40.minimised.mol

>  <scratch_subdir>  (1125) 
/opt/xchem-fragalysis-2/maxwin/BulkDock/SCRATCH/511023/C30273-P40

>  <fragmenstein_runtime>  (1125) 
29.504579305648804

>  <fragmenstein_outcome>  (1125) 
too moved

>  <fragmenstein_mode>  (1125) 
expansion

>  <fragmenstein_error>  (1125) 


$$$$
C30273-P123
     RDKit          3D

 46 48  0  0  0  0  0  0  0  0999 V2000
   -7.3647  -13.9951   28.6426 C   0  0  0  0  0  0  0  0  0  0  0  0
   -6.4809  -13.9116   30.1582 C   0  0  0  0  0  0  0  0  0  0  0  0
   -5.1443  -13.0277   30.1259 N   0  0  0  0  0  0  0  0  0  0  0  0
   -4.8052  -11.8417   30.7817 C   0  0  0  0  0  0  0  0  0  0  0  0
   -5.4576  -11.1271   31.4829 O   0  0  0  0  0  0  0  0  0  0  0  0
   -3.0236  -11.4914   30.3125 C   0  0  0  0  0  0  0  0  0  0  0  0
   -1.8963  -10.3405   30.8248 N   0  0  0  0  0  0  0  0  0  0  0  0
   -0.8766   -9.9470   29.8605 C   0  0  0  0  0  0  0  0  0  0  0  0
   -0.6419   -8.5874   29.9734 C   0  0  0  0  0  0  0  0  0  0  0  0
   -1.1459   -8.1513   31.2197 C   0  0  0  0  0  0  0  0  0  0  0  0
   -0.9887   -6.9193   31.8828 C   0  0  0  0  0  0  0  0  0  0  0  0
   -1.3846   -6.7996   33.2027 C   0  0  0  0  0  0  0  0  0  0  0  0
   -1.9405   -7.8921   33.8377 C   0  0  0  0  0  0  0  0  0  0  0  0
   -2.1986   -9.0924   33.1513 C   0  0  0  0  0  0  0  0  0  0  0  0
   -1.8843   -9.2412   31.7907 C   0  0  0  0  0  0  0  0  0  0  0  0
   -7.4393  -14.3885   31.7384 C   0  0  0  0  0  0  0  0  0  0  0  0
   -8.8581  -14.5646   32.0677 C   0  0  0  0  0  0  0  0  0  0  0  0
   -7.4306  -15.4852   33.1277 N   0  0  0  0  0  0  0  0  0  0  0  0
   -6.8427  -16.7243   33.3115 C   0  0  0  0  0  0  0  0  0  0  0  0
   -6.1153  -17.3512   32.6131 O   0  0  0  0  0  0  0  0  0  0  0  0
   -7.3866  -17.2233   34.5669 C   0  0  0  0  0  0  0  0  0  0  0  0
   -7.5703  -18.5658   34.8346 C   0  0  0  0  0  0  0  0  0  0  0  0
   -7.7208  -18.5710   36.1860 C   0  0  0  0  0  0  0  0  0  0  0  0
   -8.1471  -17.3334   36.5180 N   0  0  0  0  0  0  0  0  0  0  0  0
   -7.8371  -16.4459   35.5790 N   0  0  0  0  0  0  0  0  0  0  0  0
   -7.4392  -15.0124   28.3111 H   0  0  0  0  0  0  0  0  0  0  0  0
   -7.0356  -13.3911   27.8009 H   0  0  0  0  0  0  0  0  0  0  0  0
   -8.4414  -13.8924   28.7680 H   0  0  0  0  0  0  0  0  0  0  0  0
   -5.9262  -14.8449   29.9818 H   0  0  0  0  0  0  0  0  0  0  0  0
   -4.3365  -13.3950   29.7028 H   0  0  0  0  0  0  0  0  0  0  0  0
   -2.9764  -11.4731   29.2295 H   0  0  0  0  0  0  0  0  0  0  0  0
   -2.4066  -12.3411   30.3532 H   0  0  0  0  0  0  0  0  0  0  0  0
   -0.6176  -10.5779   29.0398 H   0  0  0  0  0  0  0  0  0  0  0  0
   -0.1859   -7.9613   29.2212 H   0  0  0  0  0  0  0  0  0  0  0  0
   -0.4418   -6.1098   31.4081 H   0  0  0  0  0  0  0  0  0  0  0  0
   -1.1843   -5.8848   33.7531 H   0  0  0  0  0  0  0  0  0  0  0  0
   -2.1437   -7.8403   34.9053 H   0  0  0  0  0  0  0  0  0  0  0  0
   -2.4363   -9.9265   33.7824 H   0  0  0  0  0  0  0  0  0  0  0  0
   -6.6023  -15.0453   31.4740 H   0  0  0  0  0  0  0  0  0  0  0  0
   -9.2070  -14.3296   31.0871 H   0  0  0  0  0  0  0  0  0  0  0  0
   -9.2981  -13.8077   32.7006 H   0  0  0  0  0  0  0  0  0  0  0  0
   -9.3199  -15.4436   32.5841 H   0  0  0  0  0  0  0  0  0  0  0  0
   -7.9306  -15.2260   33.9830 H   0  0  0  0  0  0  0  0  0  0  0  0
   -7.3726  -19.3728   34.1486 H   0  0  0  0  0  0  0  0  0  0  0  0
   -7.5792  -19.3479   36.9204 H   0  0  0  0  0  0  0  0  0  0  0  0
   -8.4907  -17.0041   37.4115 H   0  0  0  0  0  0  0  0  0  0  0  0
  1  2  1  0
  2  3  1  0
  3  4  1  0
  4  5  2  0
  4  6  1  0
  6  7  1  0
  7  8  1  0
  8  9  2  0
  9 10  1  0
 10 11  2  0
 11 12  1  0
 12 13  2  0
 13 14  1  0
 14 15  2  0
  2 16  1  0
 16 17  1  0
 16 18  1  0
 18 19  1  0
 19 20  2  0
 19 21  1  0
 21 22  1  0
 22 23  2  0
 23 24  1  0
 24 25  1  0
 15  7  1  0
 25 21  2  0
 15 10  1  0
  1 26  1  0
  1 27  1  0
  1 28  1  0
  2 29  1  0
  3 30  1  0
  6 31  1  0
  6 32  1  0
  8 33  1  0
  9 34  1  0
 11 35  1  0
 12 36  1  0
 13 37  1  0
 14 38  1  0
 16 39  1  0
 17 40  1  0
 17 41  1  0
 17 42  1  0
 18 43  1  0
 22 44  1  0
 23 45  1  0
 24 46  1  0
M  END
>  <Energy>  (1126) 
405.46018175271286

>  <compound_id>  (1126) 
30273

>  <target_id>  (1126) 
1

>  <reference_id>  (1126) 
123

>  <inspiration_ids>  (1126) 
[40, 123]

>  <energy_score>  (1126) 
315.0667011264121

>  <distance_score>  (1126) 
6.318057105607454

>  <path>  (1126) 
/opt/xchem-fragalysis-2/maxwin/BulkDock/SCRATCH/511023/C30273-P123/C30273-P123.minimised.mol

>  <scratch_subdir>  (1126) 
/opt/xchem-fragalysis-2/maxwin/BulkDock/SCRATCH/511023/C30273-P123

>  <fragmenstein_runtime>  (1126) 
24.710514307022095

>  <fragmenstein_outcome>  (1126) 
too moved

>  <fragmenstein_mode>  (1126) 
expansion

>  <fragmenstein_error>  (1126) 


$$$$
C46199-P40
     RDKit          3D

 48 51  0  0  0  0  0  0  0  0999 V2000
   -6.9562  -14.1175   31.5713 C   0  0  0  0  0  0  0  0  0  0  0  0
   -7.5724  -13.2532   33.0043 N   0  0  0  0  0  0  0  0  0  0  0  0
   -8.9974  -14.6753   32.9139 C   0  0  0  0  0  0  0  0  0  0  0  0
   -9.4456  -16.5049   33.7660 C   0  0  0  0  0  0  0  0  0  0  0  0
   -9.0258  -16.8263   35.0650 N   0  0  0  0  0  0  0  0  0  0  0  0
   -8.9590  -18.2103   35.3746 N   0  0  0  0  0  0  0  0  0  0  0  0
   -8.9721  -19.0958   34.3297 C   0  0  0  0  0  0  0  0  0  0  0  0
   -9.7725  -18.2823   33.5526 C   0  0  0  0  0  0  0  0  0  0  0  0
  -10.6507  -19.4354   32.4955 C   0  0  0  0  0  0  0  0  0  0  0  0
  -11.0788  -20.5784   30.9991 C   0  0  0  0  0  0  0  0  0  0  0  0
  -11.0069  -21.9196   31.1612 C   0  0  0  0  0  0  0  0  0  0  0  0
   -9.5795  -21.8724   32.3661 C   0  0  0  0  0  0  0  0  0  0  0  0
   -8.5860  -20.8284   33.9154 C   0  0  0  0  0  0  0  0  0  0  0  0
   -7.6202  -11.7207   32.7088 C   0  0  0  0  0  0  0  0  0  0  0  0
   -8.5390  -11.0941   32.2611 O   0  0  0  0  0  0  0  0  0  0  0  0
   -5.9389  -11.1531   33.2852 N   0  0  0  0  0  0  0  0  0  0  0  0
   -5.1837   -9.4133   33.4731 C   0  0  0  0  0  0  0  0  0  0  0  0
   -4.3704   -8.7275   32.2885 C   0  0  0  0  0  0  0  0  0  0  0  0
   -2.8963   -8.3804   32.1715 C   0  0  0  0  0  0  0  0  0  0  0  0
   -2.2026   -8.1942   33.3636 C   0  0  0  0  0  0  0  0  0  0  0  0
   -0.9952   -7.5669   33.5646 N   0  0  0  0  0  0  0  0  0  0  0  0
   -0.7201   -7.5199   34.8942 C   0  0  0  0  0  0  0  0  0  0  0  0
   -1.7626   -8.1461   35.5494 C   0  0  0  0  0  0  0  0  0  0  0  0
   -2.7981   -8.5026   34.6134 C   0  0  0  0  0  0  0  0  0  0  0  0
   -4.1332   -9.2122   34.6618 C   0  0  0  0  0  0  0  0  0  0  0  0
   -6.1715  -14.8821   31.6834 H   0  0  0  0  0  0  0  0  0  0  0  0
   -7.7159  -14.3680   30.9026 H   0  0  0  0  0  0  0  0  0  0  0  0
   -6.3819  -13.3379   31.1079 H   0  0  0  0  0  0  0  0  0  0  0  0
   -9.8289  -14.1778   33.3614 H   0  0  0  0  0  0  0  0  0  0  0  0
   -9.1649  -14.5624   31.9168 H   0  0  0  0  0  0  0  0  0  0  0  0
   -8.7147  -18.4181   36.3335 H   0  0  0  0  0  0  0  0  0  0  0  0
  -10.0435  -20.0954   32.9395 H   0  0  0  0  0  0  0  0  0  0  0  0
  -11.6601  -19.1710   32.9403 H   0  0  0  0  0  0  0  0  0  0  0  0
  -12.1780  -20.6861   30.8934 H   0  0  0  0  0  0  0  0  0  0  0  0
  -10.7355  -20.4450   29.9628 H   0  0  0  0  0  0  0  0  0  0  0  0
  -11.7021  -22.5808   31.5478 H   0  0  0  0  0  0  0  0  0  0  0  0
  -10.9357  -22.3216   30.1179 H   0  0  0  0  0  0  0  0  0  0  0  0
   -9.1777  -22.9871   32.5394 H   0  0  0  0  0  0  0  0  0  0  0  0
  -10.3429  -22.7098   32.6199 H   0  0  0  0  0  0  0  0  0  0  0  0
   -8.4303  -21.3537   34.8778 H   0  0  0  0  0  0  0  0  0  0  0  0
   -7.5053  -20.7766   33.6372 H   0  0  0  0  0  0  0  0  0  0  0  0
   -5.4344  -11.9244   33.6818 H   0  0  0  0  0  0  0  0  0  0  0  0
   -4.8853   -8.7269   31.3688 H   0  0  0  0  0  0  0  0  0  0  0  0
   -2.4967   -7.9334   31.2778 H   0  0  0  0  0  0  0  0  0  0  0  0
   -0.4116   -7.1894   32.8337 H   0  0  0  0  0  0  0  0  0  0  0  0
    0.1992   -7.0955   35.2716 H   0  0  0  0  0  0  0  0  0  0  0  0
   -1.7512   -8.3624   36.6054 H   0  0  0  0  0  0  0  0  0  0  0  0
   -4.3694   -9.7081   35.6067 H   0  0  0  0  0  0  0  0  0  0  0  0
  1  2  1  0
  2  3  1  0
  3  4  1  0
  4  5  2  0
  5  6  1  0
  6  7  1  0
  7  8  2  0
  8  9  1  0
  9 10  1  0
 10 11  1  0
 11 12  1  0
 12 13  1  0
  2 14  1  0
 14 15  2  0
 14 16  1  0
 16 17  1  0
 17 18  2  0
 18 19  1  0
 19 20  2  0
 20 21  1  0
 21 22  1  0
 22 23  2  0
 23 24  1  0
 24 25  2  0
  8  4  1  0
 25 17  1  0
 13  7  1  0
 24 20  1  0
  1 26  1  0
  1 27  1  0
  1 28  1  0
  3 29  1  0
  3 30  1  0
  6 31  1  0
  9 32  1  0
  9 33  1  0
 10 34  1  0
 10 35  1  0
 11 36  1  0
 11 37  1  0
 12 38  1  0
 12 39  1  0
 13 40  1  0
 13 41  1  0
 16 42  1  0
 18 43  1  0
 19 44  1  0
 21 45  1  0
 22 46  1  0
 23 47  1  0
 25 48  1  0
M  END
>  <Energy>  (1127) 
1025.6618499501328

>  <compound_id>  (1127) 
46199

>  <target_id>  (1127) 
1

>  <reference_id>  (1127) 
40

>  <inspiration_ids>  (1127) 
[40, 123]

>  <energy_score>  (1127) 
1002.8170605091586

>  <distance_score>  (1127) 
6.770090302756012

>  <path>  (1127) 
/opt/xchem-fragalysis-2/maxwin/BulkDock/SCRATCH/511023/C46199-P40/C46199-P40.minimised.mol

>  <scratch_subdir>  (1127) 
/opt/xchem-fragalysis-2/maxwin/BulkDock/SCRATCH/511023/C46199-P40

>  <fragmenstein_runtime>  (1127) 
21.81723976135254

>  <fragmenstein_outcome>  (1127) 
too moved

>  <fragmenstein_mode>  (1127) 
expansion

>  <fragmenstein_error>  (1127) 


$$$$
C46199-P123
     RDKit          3D

 48 51  0  0  0  0  0  0  0  0999 V2000
   -9.0461  -14.5651   32.2760 C   0  0  0  0  0  0  0  0  0  0  0  0
   -7.7333  -14.6194   32.6061 N   0  0  0  0  0  0  0  0  0  0  0  0
   -8.1876  -16.2279   33.0932 C   0  0  0  0  0  0  0  0  0  0  0  0
   -8.8001  -16.6515   34.6479 C   0  0  0  0  0  0  0  0  0  0  0  0
   -7.8300  -16.6115   35.5940 N   0  0  0  0  0  0  0  0  0  0  0  0
   -8.3726  -17.0465   36.7083 N   0  0  0  0  0  0  0  0  0  0  0  0
   -9.7202  -17.1161   36.6654 C   0  0  0  0  0  0  0  0  0  0  0  0
  -10.0310  -17.1820   35.3100 C   0  0  0  0  0  0  0  0  0  0  0  0
  -11.3655  -17.8284   34.9914 C   0  0  0  0  0  0  0  0  0  0  0  0
  -12.6128  -17.0390   35.2527 C   0  0  0  0  0  0  0  0  0  0  0  0
  -12.9906  -17.0858   36.7396 C   0  0  0  0  0  0  0  0  0  0  0  0
  -12.0002  -17.6818   37.7786 C   0  0  0  0  0  0  0  0  0  0  0  0
  -10.5171  -17.2583   37.9177 C   0  0  0  0  0  0  0  0  0  0  0  0
   -6.6579  -14.0446   31.1788 C   0  0  0  0  0  0  0  0  0  0  0  0
   -6.1626  -14.6683   30.2771 O   0  0  0  0  0  0  0  0  0  0  0  0
   -6.4449  -12.4924   31.6180 N   0  0  0  0  0  0  0  0  0  0  0  0
   -5.4697  -11.4450   31.1059 C   0  0  0  0  0  0  0  0  0  0  0  0
   -4.2507  -11.8584   30.4314 C   0  0  0  0  0  0  0  0  0  0  0  0
   -2.8168  -11.0388   30.6480 C   0  0  0  0  0  0  0  0  0  0  0  0
   -2.6637   -9.8635   31.5930 C   0  0  0  0  0  0  0  0  0  0  0  0
   -1.7003   -8.8843   31.7994 N   0  0  0  0  0  0  0  0  0  0  0  0
   -1.9050   -8.2858   33.0048 C   0  0  0  0  0  0  0  0  0  0  0  0
   -3.1266   -8.7328   33.4404 C   0  0  0  0  0  0  0  0  0  0  0  0
   -3.7534   -9.4408   32.3601 C   0  0  0  0  0  0  0  0  0  0  0  0
   -5.0695  -10.2017   32.1793 C   0  0  0  0  0  0  0  0  0  0  0  0
   -9.4055  -13.6535   32.7562 H   0  0  0  0  0  0  0  0  0  0  0  0
   -9.8206  -15.2490   32.7002 H   0  0  0  0  0  0  0  0  0  0  0  0
   -8.9603  -14.4073   31.2260 H   0  0  0  0  0  0  0  0  0  0  0  0
   -7.1952  -16.1140   33.6041 H   0  0  0  0  0  0  0  0  0  0  0  0
   -7.6141  -17.1165   32.7457 H   0  0  0  0  0  0  0  0  0  0  0  0
   -7.7551  -17.2280   37.4910 H   0  0  0  0  0  0  0  0  0  0  0  0
  -11.4013  -18.4783   34.1268 H   0  0  0  0  0  0  0  0  0  0  0  0
  -11.4954  -18.6536   35.6922 H   0  0  0  0  0  0  0  0  0  0  0  0
  -12.5395  -16.0127   34.8823 H   0  0  0  0  0  0  0  0  0  0  0  0
  -13.4409  -17.4843   34.6860 H   0  0  0  0  0  0  0  0  0  0  0  0
  -13.3307  -16.0949   37.0380 H   0  0  0  0  0  0  0  0  0  0  0  0
  -13.9023  -17.6967   36.8169 H   0  0  0  0  0  0  0  0  0  0  0  0
  -12.4626  -17.5559   38.7676 H   0  0  0  0  0  0  0  0  0  0  0  0
  -12.0064  -18.7625   37.6342 H   0  0  0  0  0  0  0  0  0  0  0  0
  -10.3466  -16.3479   38.4846 H   0  0  0  0  0  0  0  0  0  0  0  0
  -10.0466  -17.9698   38.6105 H   0  0  0  0  0  0  0  0  0  0  0  0
   -7.0351  -12.2790   32.3098 H   0  0  0  0  0  0  0  0  0  0  0  0
   -4.2384  -12.6978   29.7697 H   0  0  0  0  0  0  0  0  0  0  0  0
   -1.9768  -11.2965   30.0309 H   0  0  0  0  0  0  0  0  0  0  0  0
   -0.9110   -8.6851   31.1964 H   0  0  0  0  0  0  0  0  0  0  0  0
   -1.1638   -7.6300   33.4470 H   0  0  0  0  0  0  0  0  0  0  0  0
   -3.5577   -8.5284   34.4129 H   0  0  0  0  0  0  0  0  0  0  0  0
   -5.6412  -10.0636   33.0731 H   0  0  0  0  0  0  0  0  0  0  0  0
  1  2  1  0
  2  3  1  0
  3  4  1  0
  4  5  2  0
  5  6  1  0
  6  7  1  0
  7  8  2  0
  8  9  1  0
  9 10  1  0
 10 11  1  0
 11 12  1  0
 12 13  1  0
  2 14  1  0
 14 15  2  0
 14 16  1  0
 16 17  1  0
 17 18  2  0
 18 19  1  0
 19 20  2  0
 20 21  1  0
 21 22  1  0
 22 23  2  0
 23 24  1  0
 24 25  2  0
  8  4  1  0
 25 17  1  0
 13  7  1  0
 24 20  1  0
  1 26  1  0
  1 27  1  0
  1 28  1  0
  3 29  1  0
  3 30  1  0
  6 31  1  0
  9 32  1  0
  9 33  1  0
 10 34  1  0
 10 35  1  0
 11 36  1  0
 11 37  1  0
 12 38  1  0
 12 39  1  0
 13 40  1  0
 13 41  1  0
 16 42  1  0
 18 43  1  0
 19 44  1  0
 21 45  1  0
 22 46  1  0
 23 47  1  0
 25 48  1  0
M  END
>  <Energy>  (1128) 
327.43148874357814

>  <compound_id>  (1128) 
46199

>  <target_id>  (1128) 
1

>  <reference_id>  (1128) 
123

>  <inspiration_ids>  (1128) 
[40, 123]

>  <energy_score>  (1128) 
304.58669930261226

>  <distance_score>  (1128) 
8.434482706441203

>  <path>  (1128) 
/opt/xchem-fragalysis-2/maxwin/BulkDock/SCRATCH/511023/C46199-P123/C46199-P123.minimised.mol

>  <scratch_subdir>  (1128) 
/opt/xchem-fragalysis-2/maxwin/BulkDock/SCRATCH/511023/C46199-P123

>  <fragmenstein_runtime>  (1128) 
25.65556287765503

>  <fragmenstein_outcome>  (1128) 
too moved

>  <fragmenstein_mode>  (1128) 
expansion

>  <fragmenstein_error>  (1128) 


$$$$
C30274-P40
     RDKit          3D

 35 37  0  0  0  0  0  0  0  0999 V2000
   -9.0743  -14.4864   32.1918 C   0  0  0  0  0  0  0  0  0  0  0  0
   -8.6657  -13.4698   32.9902 N   0  0  0  0  0  0  0  0  0  0  0  0
   -9.3241  -15.0381   34.0112 C   0  0  0  0  0  0  0  0  0  0  0  0
   -9.8127  -16.7020   34.1660 C   0  0  0  0  0  0  0  0  0  0  0  0
  -10.9321  -17.0912   35.0247 C   0  0  0  0  0  0  0  0  0  0  0  0
  -10.6170  -18.3203   35.5454 C   0  0  0  0  0  0  0  0  0  0  0  0
   -9.4587  -18.6773   34.9369 N   0  0  0  0  0  0  0  0  0  0  0  0
   -8.9490  -17.7292   34.1482 N   0  0  0  0  0  0  0  0  0  0  0  0
   -7.0093  -12.4984   33.0241 C   0  0  0  0  0  0  0  0  0  0  0  0
   -6.1769  -12.8676   32.3103 O   0  0  0  0  0  0  0  0  0  0  0  0
   -6.6572  -11.0437   34.1490 N   0  0  0  0  0  0  0  0  0  0  0  0
   -5.0060  -10.0072   34.5077 C   0  0  0  0  0  0  0  0  0  0  0  0
   -4.7016   -8.8850   35.3563 C   0  0  0  0  0  0  0  0  0  0  0  0
   -3.2112   -7.9656   35.4830 C   0  0  0  0  0  0  0  0  0  0  0  0
   -2.3471   -7.8528   34.4457 C   0  0  0  0  0  0  0  0  0  0  0  0
   -1.3373   -7.1301   33.9307 N   0  0  0  0  0  0  0  0  0  0  0  0
   -1.1236   -7.6027   32.6524 C   0  0  0  0  0  0  0  0  0  0  0  0
   -1.9602   -8.7010   32.4775 C   0  0  0  0  0  0  0  0  0  0  0  0
   -2.7683   -8.8666   33.6634 C   0  0  0  0  0  0  0  0  0  0  0  0
   -3.6167   -9.8817   34.5796 C   0  0  0  0  0  0  0  0  0  0  0  0
   -8.2749  -15.1895   32.2365 H   0  0  0  0  0  0  0  0  0  0  0  0
  -10.0190  -15.0158   32.4167 H   0  0  0  0  0  0  0  0  0  0  0  0
   -8.8489  -14.4138   31.1323 H   0  0  0  0  0  0  0  0  0  0  0  0
   -8.8459  -15.5020   34.8881 H   0  0  0  0  0  0  0  0  0  0  0  0
  -10.4011  -14.8152   34.0256 H   0  0  0  0  0  0  0  0  0  0  0  0
  -11.7587  -16.4679   35.3269 H   0  0  0  0  0  0  0  0  0  0  0  0
  -11.1086  -18.9553   36.2680 H   0  0  0  0  0  0  0  0  0  0  0  0
   -8.9418  -19.5467   35.0178 H   0  0  0  0  0  0  0  0  0  0  0  0
   -7.4235  -10.9151   34.7437 H   0  0  0  0  0  0  0  0  0  0  0  0
   -5.3827   -8.7075   36.1873 H   0  0  0  0  0  0  0  0  0  0  0  0
   -2.5882   -8.3491   36.3294 H   0  0  0  0  0  0  0  0  0  0  0  0
   -0.9101   -6.3166   34.3557 H   0  0  0  0  0  0  0  0  0  0  0  0
   -0.3585   -7.1711   32.0237 H   0  0  0  0  0  0  0  0  0  0  0  0
   -1.8709   -9.3851   31.6598 H   0  0  0  0  0  0  0  0  0  0  0  0
   -3.1189  -10.2376   35.5200 H   0  0  0  0  0  0  0  0  0  0  0  0
  1  2  1  0
  2  3  1  0
  3  4  1  0
  4  5  1  0
  5  6  2  0
  6  7  1  0
  7  8  1  0
  2  9  1  0
  9 10  2  0
  9 11  1  0
 11 12  1  0
 12 13  2  0
 13 14  1  0
 14 15  2  0
 15 16  1  0
 16 17  1  0
 17 18  2  0
 18 19  1  0
 19 20  2  0
  8  4  2  0
 20 12  1  0
 19 15  1  0
  1 21  1  0
  1 22  1  0
  1 23  1  0
  3 24  1  0
  3 25  1  0
  5 26  1  0
  6 27  1  0
  7 28  1  0
 11 29  1  0
 13 30  1  0
 14 31  1  0
 16 32  1  0
 17 33  1  0
 18 34  1  0
 20 35  1  0
M  END
>  <Energy>  (1129) 
877.13663552201638

>  <compound_id>  (1129) 
30274

>  <target_id>  (1129) 
1

>  <reference_id>  (1129) 
40

>  <inspiration_ids>  (1129) 
[40, 123]

>  <energy_score>  (1129) 
860.9527424471188

>  <distance_score>  (1129) 
7.44685140136029

>  <path>  (1129) 
/opt/xchem-fragalysis-2/maxwin/BulkDock/SCRATCH/511023/C30274-P40/C30274-P40.minimised.mol

>  <scratch_subdir>  (1129) 
/opt/xchem-fragalysis-2/maxwin/BulkDock/SCRATCH/511023/C30274-P40

>  <fragmenstein_runtime>  (1129) 
11.441421270370483

>  <fragmenstein_outcome>  (1129) 
too moved

>  <fragmenstein_mode>  (1129) 
expansion

>  <fragmenstein_error>  (1129) 


$$$$
C30274-P123
     RDKit          3D

 35 37  0  0  0  0  0  0  0  0999 V2000
   -5.9837  -17.1270   32.5342 C   0  0  0  0  0  0  0  0  0  0  0  0
   -6.0047  -15.8181   32.0046 N   0  0  0  0  0  0  0  0  0  0  0  0
   -7.6127  -16.1089   32.9828 C   0  0  0  0  0  0  0  0  0  0  0  0
   -8.1187  -17.0527   34.1322 C   0  0  0  0  0  0  0  0  0  0  0  0
   -9.3355  -16.8402   34.8263 C   0  0  0  0  0  0  0  0  0  0  0  0
   -9.0738  -17.2634   36.1032 C   0  0  0  0  0  0  0  0  0  0  0  0
   -7.8928  -17.9375   36.0278 N   0  0  0  0  0  0  0  0  0  0  0  0
   -7.4023  -17.9683   34.7903 N   0  0  0  0  0  0  0  0  0  0  0  0
   -5.7402  -15.3005   30.1985 C   0  0  0  0  0  0  0  0  0  0  0  0
   -5.6073  -15.9640   29.2086 O   0  0  0  0  0  0  0  0  0  0  0  0
   -5.6074  -13.6484   30.4227 N   0  0  0  0  0  0  0  0  0  0  0  0
   -5.1906  -12.5968   29.5552 C   0  0  0  0  0  0  0  0  0  0  0  0
   -5.4674  -11.4953   30.9079 C   0  0  0  0  0  0  0  0  0  0  0  0
   -5.0769  -10.2905   32.0552 C   0  0  0  0  0  0  0  0  0  0  0  0
   -3.5657  -10.0684   31.8154 C   0  0  0  0  0  0  0  0  0  0  0  0
   -2.6849   -9.1364   32.2699 N   0  0  0  0  0  0  0  0  0  0  0  0
   -1.5836   -9.1708   31.4845 C   0  0  0  0  0  0  0  0  0  0  0  0
   -1.5571  -10.3316   30.6501 C   0  0  0  0  0  0  0  0  0  0  0  0
   -2.8439  -11.0018   30.6824 C   0  0  0  0  0  0  0  0  0  0  0  0
   -3.7210  -12.1773   29.6731 C   0  0  0  0  0  0  0  0  0  0  0  0
   -4.9531  -17.3654   32.4646 H   0  0  0  0  0  0  0  0  0  0  0  0
   -6.5831  -17.8713   32.0527 H   0  0  0  0  0  0  0  0  0  0  0  0
   -5.9761  -17.0494   33.5851 H   0  0  0  0  0  0  0  0  0  0  0  0
   -8.4033  -15.4457   32.5955 H   0  0  0  0  0  0  0  0  0  0  0  0
   -7.2199  -15.4343   33.7680 H   0  0  0  0  0  0  0  0  0  0  0  0
  -10.1604  -16.2235   34.5058 H   0  0  0  0  0  0  0  0  0  0  0  0
   -9.6082  -17.1449   37.0319 H   0  0  0  0  0  0  0  0  0  0  0  0
   -7.3403  -18.3698   36.7676 H   0  0  0  0  0  0  0  0  0  0  0  0
   -5.8540  -13.4237   31.2860 H   0  0  0  0  0  0  0  0  0  0  0  0
   -4.7122  -12.0670   31.3675 H   0  0  0  0  0  0  0  0  0  0  0  0
   -5.7569   -9.5679   32.4759 H   0  0  0  0  0  0  0  0  0  0  0  0
   -2.8916   -8.4356   32.9671 H   0  0  0  0  0  0  0  0  0  0  0  0
   -0.8675   -8.3546   31.5577 H   0  0  0  0  0  0  0  0  0  0  0  0
   -0.7785  -10.5090   29.9178 H   0  0  0  0  0  0  0  0  0  0  0  0
   -3.1319  -12.6165   28.8924 H   0  0  0  0  0  0  0  0  0  0  0  0
  1  2  1  0
  2  3  1  0
  3  4  1  0
  4  5  1  0
  5  6  2  0
  6  7  1  0
  7  8  1  0
  2  9  1  0
  9 10  2  0
  9 11  1  0
 11 12  1  0
 12 13  2  0
 13 14  1  0
 14 15  2  0
 15 16  1  0
 16 17  1  0
 17 18  2  0
 18 19  1  0
 19 20  2  0
  8  4  2  0
 20 12  1  0
 19 15  1  0
  1 21  1  0
  1 22  1  0
  1 23  1  0
  3 24  1  0
  3 25  1  0
  5 26  1  0
  6 27  1  0
  7 28  1  0
 11 29  1  0
 13 30  1  0
 14 31  1  0
 16 32  1  0
 17 33  1  0
 18 34  1  0
 20 35  1  0
M  END
>  <Energy>  (1130) 
560.74824657357999

>  <compound_id>  (1130) 
30274

>  <target_id>  (1130) 
1

>  <reference_id>  (1130) 
123

>  <inspiration_ids>  (1130) 
[40, 123]

>  <energy_score>  (1130) 
544.5643534987037

>  <distance_score>  (1130) 
8.123538335484868

>  <path>  (1130) 
/opt/xchem-fragalysis-2/maxwin/BulkDock/SCRATCH/511023/C30274-P123/C30274-P123.minimised.mol

>  <scratch_subdir>  (1130) 
/opt/xchem-fragalysis-2/maxwin/BulkDock/SCRATCH/511023/C30274-P123

>  <fragmenstein_runtime>  (1130) 
20.715181589126587

>  <fragmenstein_outcome>  (1130) 
too moved

>  <fragmenstein_mode>  (1130) 
expansion

>  <fragmenstein_error>  (1130) 


$$$$
C47041-P80
     RDKit          3D

 43 46  0  0  0  0  0  0  0  0999 V2000
   -3.9545  -14.2785   19.6117 O   0  0  0  0  0  0  0  0  0  0  0  0
   -4.2977  -13.3507   20.2906 C   0  0  0  0  0  0  0  0  0  0  0  0
   -3.8334  -11.9495   20.3070 N   0  0  0  0  0  0  0  0  0  0  0  0
   -2.8467  -11.2136   19.4033 C   0  0  0  0  0  0  0  0  0  0  0  0
   -1.8321  -10.1749   20.0410 C   0  0  0  0  0  0  0  0  0  0  0  0
   -0.8073   -9.4409   19.1675 C   0  0  0  0  0  0  0  0  0  0  0  0
   -0.2602   -9.7307   17.9310 C   0  0  0  0  0  0  0  0  0  0  0  0
    0.7200   -8.7903   17.7105 N   0  0  0  0  0  0  0  0  0  0  0  0
    0.7227   -7.9415   18.7769 C   0  0  0  0  0  0  0  0  0  0  0  0
   -0.1965   -8.2842   19.6534 N   0  0  0  0  0  0  0  0  0  0  0  0
   -5.4120  -13.7525   21.3094 C   0  0  0  0  0  0  0  0  0  0  0  0
   -6.7511  -13.4478   21.0527 C   0  0  0  0  0  0  0  0  0  0  0  0
   -7.8123  -13.9266   21.8652 C   0  0  0  0  0  0  0  0  0  0  0  0
   -7.5079  -14.6938   22.9989 C   0  0  0  0  0  0  0  0  0  0  0  0
   -8.3316  -15.1925   23.9911 N   0  0  0  0  0  0  0  0  0  0  0  0
   -7.5639  -15.6610   25.0203 C   0  0  0  0  0  0  0  0  0  0  0  0
   -6.2484  -15.6872   24.5935 C   0  0  0  0  0  0  0  0  0  0  0  0
   -6.1939  -15.0451   23.3120 C   0  0  0  0  0  0  0  0  0  0  0  0
   -5.1613  -14.6276   22.4096 C   0  0  0  0  0  0  0  0  0  0  0  0
   -5.1534  -16.1297   25.5025 C   0  0  0  0  0  0  0  0  0  0  0  0
   -5.5452  -15.8995   26.9744 C   0  0  0  0  0  0  0  0  0  0  0  0
   -6.9308  -16.4975   27.2843 C   0  0  0  0  0  0  0  0  0  0  0  0
   -8.0487  -15.8973   26.4103 C   0  0  0  0  0  0  0  0  0  0  0  0
   -4.4033  -11.4187   20.9543 H   0  0  0  0  0  0  0  0  0  0  0  0
   -3.4678  -10.6889   18.6685 H   0  0  0  0  0  0  0  0  0  0  0  0
   -2.2930  -11.9843   18.8589 H   0  0  0  0  0  0  0  0  0  0  0  0
   -2.4370   -9.4085   20.5436 H   0  0  0  0  0  0  0  0  0  0  0  0
   -1.2823  -10.6815   20.8370 H   0  0  0  0  0  0  0  0  0  0  0  0
   -0.4349  -10.5356   17.2312 H   0  0  0  0  0  0  0  0  0  0  0  0
    1.3430   -8.7507   16.9164 H   0  0  0  0  0  0  0  0  0  0  0  0
    1.4057   -7.1083   18.8643 H   0  0  0  0  0  0  0  0  0  0  0  0
   -6.9979  -12.8590   20.1703 H   0  0  0  0  0  0  0  0  0  0  0  0
   -8.8385  -13.6694   21.6189 H   0  0  0  0  0  0  0  0  0  0  0  0
   -9.3262  -15.0252   24.0307 H   0  0  0  0  0  0  0  0  0  0  0  0
   -4.1464  -14.9624   22.5915 H   0  0  0  0  0  0  0  0  0  0  0  0
   -4.9982  -17.2018   25.3538 H   0  0  0  0  0  0  0  0  0  0  0  0
   -4.2163  -15.6093   25.2794 H   0  0  0  0  0  0  0  0  0  0  0  0
   -4.7917  -16.3541   27.6275 H   0  0  0  0  0  0  0  0  0  0  0  0
   -5.5583  -14.8241   27.1926 H   0  0  0  0  0  0  0  0  0  0  0  0
   -7.1759  -16.3483   28.3422 H   0  0  0  0  0  0  0  0  0  0  0  0
   -6.8804  -17.5810   27.1257 H   0  0  0  0  0  0  0  0  0  0  0  0
   -8.3476  -14.9320   26.8383 H   0  0  0  0  0  0  0  0  0  0  0  0
   -8.9340  -16.5382   26.4234 H   0  0  0  0  0  0  0  0  0  0  0  0
  1  2  2  0
  2  3  1  0
  3  4  1  0
  4  5  1  0
  5  6  1  0
  6  7  2  0
  7  8  1  0
  8  9  1  0
  9 10  2  0
  2 11  1  0
 11 12  2  0
 12 13  1  0
 13 14  2  0
 14 15  1  0
 15 16  1  0
 16 17  2  0
 17 18  1  0
 18 19  2  0
 17 20  1  0
 20 21  1  0
 21 22  1  0
 22 23  1  0
 10  6  1  0
 19 11  1  0
 18 14  1  0
 23 16  1  0
  3 24  1  0
  4 25  1  0
  4 26  1  0
  5 27  1  0
  5 28  1  0
  7 29  1  0
  8 30  1  0
  9 31  1  0
 12 32  1  0
 13 33  1  0
 15 34  1  0
 19 35  1  0
 20 36  1  0
 20 37  1  0
 21 38  1  0
 21 39  1  0
 22 40  1  0
 22 41  1  0
 23 42  1  0
 23 43  1  0
M  END
>  <Energy>  (1131) 
49.537407444563854

>  <compound_id>  (1131) 
47041

>  <target_id>  (1131) 
1

>  <reference_id>  (1131) 
80

>  <inspiration_ids>  (1131) 
[80, 39]

>  <energy_score>  (1131) 
-4.730402334823111

>  <distance_score>  (1131) 
14.628523807449959

>  <path>  (1131) 
/opt/xchem-fragalysis-2/maxwin/BulkDock/SCRATCH/511023/C47041-P80/C47041-P80.minimised.mol

>  <scratch_subdir>  (1131) 
/opt/xchem-fragalysis-2/maxwin/BulkDock/SCRATCH/511023/C47041-P80

>  <fragmenstein_runtime>  (1131) 
35.27653622627258

>  <fragmenstein_outcome>  (1131) 
too moved

>  <fragmenstein_mode>  (1131) 
expansion

>  <fragmenstein_error>  (1131) 


$$$$
C47041-P39
     RDKit          3D

 43 46  0  0  0  0  0  0  0  0999 V2000
   -9.0510  -14.6911   25.4154 O   0  0  0  0  0  0  0  0  0  0  0  0
   -7.9774  -14.8123   25.9479 C   0  0  0  0  0  0  0  0  0  0  0  0
   -6.7056  -14.0278   25.7707 N   0  0  0  0  0  0  0  0  0  0  0  0
   -6.3469  -12.8905   24.7806 C   0  0  0  0  0  0  0  0  0  0  0  0
   -4.9875  -12.0260   24.9505 C   0  0  0  0  0  0  0  0  0  0  0  0
   -4.6401  -10.8871   23.9398 C   0  0  0  0  0  0  0  0  0  0  0  0
   -4.9273  -10.7202   22.5949 C   0  0  0  0  0  0  0  0  0  0  0  0
   -4.2937   -9.5655   22.1810 N   0  0  0  0  0  0  0  0  0  0  0  0
   -3.6476   -9.0420   23.2621 C   0  0  0  0  0  0  0  0  0  0  0  0
   -3.7643   -9.8453   24.3041 N   0  0  0  0  0  0  0  0  0  0  0  0
   -7.9992  -16.0399   26.9850 C   0  0  0  0  0  0  0  0  0  0  0  0
   -6.9731  -16.2157   27.9103 C   0  0  0  0  0  0  0  0  0  0  0  0
   -6.8939  -17.3774   28.6875 C   0  0  0  0  0  0  0  0  0  0  0  0
   -7.9337  -18.2693   28.5019 C   0  0  0  0  0  0  0  0  0  0  0  0
   -8.2949  -19.5502   28.5015 N   0  0  0  0  0  0  0  0  0  0  0  0
   -9.9849  -20.4331   28.9304 C   0  0  0  0  0  0  0  0  0  0  0  0
   -9.5870  -20.5072   27.6759 C   0  0  0  0  0  0  0  0  0  0  0  0
   -9.0214  -18.4686   27.7873 C   0  0  0  0  0  0  0  0  0  0  0  0
   -9.0608  -17.1004   26.9639 C   0  0  0  0  0  0  0  0  0  0  0  0
   -8.9542  -22.2694   27.7137 C   0  0  0  0  0  0  0  0  0  0  0  0
  -10.0949  -23.2627   28.0822 C   0  0  0  0  0  0  0  0  0  0  0  0
  -11.2221  -22.6293   28.8940 C   0  0  0  0  0  0  0  0  0  0  0  0
  -10.8330  -21.3836   29.7113 C   0  0  0  0  0  0  0  0  0  0  0  0
   -5.9729  -14.4550   26.3176 H   0  0  0  0  0  0  0  0  0  0  0  0
   -6.3289  -13.3712   23.7958 H   0  0  0  0  0  0  0  0  0  0  0  0
   -7.2070  -12.2118   24.7852 H   0  0  0  0  0  0  0  0  0  0  0  0
   -5.0325  -11.5642   25.9453 H   0  0  0  0  0  0  0  0  0  0  0  0
   -4.1528  -12.7307   24.9820 H   0  0  0  0  0  0  0  0  0  0  0  0
   -5.5167  -11.3086   21.9047 H   0  0  0  0  0  0  0  0  0  0  0  0
   -4.3366   -9.1594   21.2551 H   0  0  0  0  0  0  0  0  0  0  0  0
   -3.0962   -8.1112   23.2267 H   0  0  0  0  0  0  0  0  0  0  0  0
   -6.1851  -15.4803   28.0320 H   0  0  0  0  0  0  0  0  0  0  0  0
   -6.0546  -17.5945   29.3389 H   0  0  0  0  0  0  0  0  0  0  0  0
   -7.5479  -20.1245   28.1212 H   0  0  0  0  0  0  0  0  0  0  0  0
   -9.8149  -16.9594   26.1931 H   0  0  0  0  0  0  0  0  0  0  0  0
   -8.3901  -22.6757   26.8659 H   0  0  0  0  0  0  0  0  0  0  0  0
   -8.0448  -22.3909   28.2453 H   0  0  0  0  0  0  0  0  0  0  0  0
  -10.5337  -23.7000   27.1759 H   0  0  0  0  0  0  0  0  0  0  0  0
   -9.6748  -24.1266   28.6110 H   0  0  0  0  0  0  0  0  0  0  0  0
  -12.0055  -22.3391   28.1823 H   0  0  0  0  0  0  0  0  0  0  0  0
  -11.6867  -23.3765   29.5482 H   0  0  0  0  0  0  0  0  0  0  0  0
  -11.8037  -20.9052   29.8294 H   0  0  0  0  0  0  0  0  0  0  0  0
  -10.5551  -21.5491   30.7536 H   0  0  0  0  0  0  0  0  0  0  0  0
  1  2  2  0
  2  3  1  0
  3  4  1  0
  4  5  1  0
  5  6  1  0
  6  7  2  0
  7  8  1  0
  8  9  1  0
  9 10  2  0
  2 11  1  0
 11 12  2  0
 12 13  1  0
 13 14  2  0
 14 15  1  0
 15 16  1  0
 16 17  2  0
 17 18  1  0
 18 19  2  0
 17 20  1  0
 20 21  1  0
 21 22  1  0
 22 23  1  0
 10  6  1  0
 19 11  1  0
 18 14  1  0
 23 16  1  0
  3 24  1  0
  4 25  1  0
  4 26  1  0
  5 27  1  0
  5 28  1  0
  7 29  1  0
  8 30  1  0
  9 31  1  0
 12 32  1  0
 13 33  1  0
 15 34  1  0
 19 35  1  0
 20 36  1  0
 20 37  1  0
 21 38  1  0
 21 39  1  0
 22 40  1  0
 22 41  1  0
 23 42  1  0
 23 43  1  0
M  END
>  <Energy>  (1132) 
584.93927496147251

>  <compound_id>  (1132) 
47041

>  <target_id>  (1132) 
1

>  <reference_id>  (1132) 
39

>  <inspiration_ids>  (1132) 
[80, 39]

>  <energy_score>  (1132) 
530.6714651820878

>  <distance_score>  (1132) 
13.887420927879461

>  <path>  (1132) 
/opt/xchem-fragalysis-2/maxwin/BulkDock/SCRATCH/511023/C47041-P39/C47041-P39.minimised.mol

>  <scratch_subdir>  (1132) 
/opt/xchem-fragalysis-2/maxwin/BulkDock/SCRATCH/511023/C47041-P39

>  <fragmenstein_runtime>  (1132) 
37.12266755104065

>  <fragmenstein_outcome>  (1132) 
too moved

>  <fragmenstein_mode>  (1132) 
expansion

>  <fragmenstein_error>  (1132) 


$$$$
C47044-P80
     RDKit          3D

 46 49  0  0  0  0  0  0  0  0999 V2000
   -0.0801  -13.7254   27.0527 C   0  0  0  0  0  0  0  0  0  0  0  0
   -1.5595  -13.8162   27.2455 C   0  0  0  0  0  0  0  0  0  0  0  0
   -2.4811  -12.7989   27.2757 C   0  0  0  0  0  0  0  0  0  0  0  0
   -3.6913  -13.4064   27.5094 N   0  0  0  0  0  0  0  0  0  0  0  0
   -3.5259  -14.7872   27.6105 C   0  0  0  0  0  0  0  0  0  0  0  0
   -4.7670  -15.7541   27.4805 C   0  0  0  0  0  0  0  0  0  0  0  0
   -5.4629  -16.6506   28.4935 N   0  0  0  0  0  0  0  0  0  0  0  0
   -6.9000  -16.8038   28.8254 C   0  0  0  0  0  0  0  0  0  0  0  0
   -7.8608  -16.1964   28.4326 O   0  0  0  0  0  0  0  0  0  0  0  0
   -7.3615  -18.0021   29.7485 C   0  0  0  0  0  0  0  0  0  0  0  0
   -7.4548  -17.8834   31.5838 C   0  0  0  0  0  0  0  0  0  0  0  0
   -8.8565  -19.0423   32.6152 C   0  0  0  0  0  0  0  0  0  0  0  0
   -9.9911  -20.2343   31.6185 C   0  0  0  0  0  0  0  0  0  0  0  0
  -10.9999  -21.1815   31.7781 N   0  0  0  0  0  0  0  0  0  0  0  0
  -11.3571  -21.8265   30.5917 C   0  0  0  0  0  0  0  0  0  0  0  0
  -10.6268  -21.5250   29.4753 C   0  0  0  0  0  0  0  0  0  0  0  0
   -9.9230  -20.3136   29.7509 C   0  0  0  0  0  0  0  0  0  0  0  0
   -8.5208  -19.1484   28.8087 C   0  0  0  0  0  0  0  0  0  0  0  0
  -10.2771  -22.5208   28.4056 C   0  0  0  0  0  0  0  0  0  0  0  0
  -10.3019  -24.0163   28.6735 C   0  0  0  0  0  0  0  0  0  0  0  0
  -11.6965  -24.5116   28.6060 C   0  0  0  0  0  0  0  0  0  0  0  0
  -12.6407  -23.4455   29.1240 C   0  0  0  0  0  0  0  0  0  0  0  0
  -12.3343  -22.9194   30.5777 C   0  0  0  0  0  0  0  0  0  0  0  0
   -2.2235  -15.0377   27.4278 N   0  0  0  0  0  0  0  0  0  0  0  0
    0.4298  -14.2345   27.8765 H   0  0  0  0  0  0  0  0  0  0  0  0
    0.1811  -14.2293   26.1259 H   0  0  0  0  0  0  0  0  0  0  0  0
    0.2595  -12.6871   27.0369 H   0  0  0  0  0  0  0  0  0  0  0  0
   -2.3969  -11.7284   27.1799 H   0  0  0  0  0  0  0  0  0  0  0  0
   -4.5857  -12.9394   27.5583 H   0  0  0  0  0  0  0  0  0  0  0  0
   -4.4761  -16.4602   26.6910 H   0  0  0  0  0  0  0  0  0  0  0  0
   -5.5792  -15.1538   27.0494 H   0  0  0  0  0  0  0  0  0  0  0  0
   -4.9182  -17.2804   29.0748 H   0  0  0  0  0  0  0  0  0  0  0  0
   -6.7604  -17.2607   32.1566 H   0  0  0  0  0  0  0  0  0  0  0  0
   -8.6480  -19.2275   33.6469 H   0  0  0  0  0  0  0  0  0  0  0  0
  -11.4332  -21.3985   32.6650 H   0  0  0  0  0  0  0  0  0  0  0  0
   -8.9828  -18.4218   28.0918 H   0  0  0  0  0  0  0  0  0  0  0  0
  -10.8696  -22.2897   27.5183 H   0  0  0  0  0  0  0  0  0  0  0  0
   -9.1995  -22.4206   28.2984 H   0  0  0  0  0  0  0  0  0  0  0  0
   -9.7219  -24.5430   27.9108 H   0  0  0  0  0  0  0  0  0  0  0  0
   -9.8620  -24.2939   29.6360 H   0  0  0  0  0  0  0  0  0  0  0  0
  -11.9650  -24.7487   27.5687 H   0  0  0  0  0  0  0  0  0  0  0  0
  -11.7404  -25.4488   29.1634 H   0  0  0  0  0  0  0  0  0  0  0  0
  -13.6063  -23.9017   28.9629 H   0  0  0  0  0  0  0  0  0  0  0  0
  -12.6942  -22.6011   28.4320 H   0  0  0  0  0  0  0  0  0  0  0  0
  -13.1996  -22.3951   30.9961 H   0  0  0  0  0  0  0  0  0  0  0  0
  -12.0087  -23.7301   31.2376 H   0  0  0  0  0  0  0  0  0  0  0  0
  1  2  1  0
  2  3  2  0
  3  4  1  0
  4  5  1  0
  5  6  1  0
  6  7  1  0
  7  8  1  0
  8  9  2  0
  8 10  1  0
 10 11  2  0
 11 12  1  0
 12 13  2  0
 13 14  1  0
 14 15  1  0
 15 16  2  0
 16 17  1  0
 17 18  2  0
 16 19  1  0
 19 20  1  0
 20 21  1  0
 21 22  1  0
 22 23  1  0
  5 24  2  0
 24  2  1  0
 18 10  1  0
 17 13  1  0
 23 15  1  0
  1 25  1  0
  1 26  1  0
  1 27  1  0
  3 28  1  0
  4 29  1  0
  6 30  1  0
  6 31  1  0
  7 32  1  0
 11 33  1  0
 12 34  1  0
 14 35  1  0
 18 36  1  0
 19 37  1  0
 19 38  1  0
 20 39  1  0
 20 40  1  0
 21 41  1  0
 21 42  1  0
 22 43  1  0
 22 44  1  0
 23 45  1  0
 23 46  1  0
M  END
>  <Energy>  (1133) 
654.48193308998577

>  <compound_id>  (1133) 
47044

>  <target_id>  (1133) 
1

>  <reference_id>  (1133) 
80

>  <inspiration_ids>  (1133) 
[80, 39]

>  <energy_score>  (1133) 
616.1458645155715

>  <distance_score>  (1133) 
14.130197139857064

>  <path>  (1133) 
/opt/xchem-fragalysis-2/maxwin/BulkDock/SCRATCH/511023/C47044-P80/C47044-P80.minimised.mol

>  <scratch_subdir>  (1133) 
/opt/xchem-fragalysis-2/maxwin/BulkDock/SCRATCH/511023/C47044-P80

>  <fragmenstein_runtime>  (1133) 
38.15027046203613

>  <fragmenstein_outcome>  (1133) 
too moved

>  <fragmenstein_mode>  (1133) 
expansion

>  <fragmenstein_error>  (1133) 


$$$$
C47044-P39
     RDKit          3D

 46 49  0  0  0  0  0  0  0  0999 V2000
    6.8618  -11.7633   20.4790 C   0  0  0  0  0  0  0  0  0  0  0  0
    5.4097  -11.8883   20.7496 C   0  0  0  0  0  0  0  0  0  0  0  0
    4.6833  -12.8341   20.1526 C   0  0  0  0  0  0  0  0  0  0  0  0
    3.6921  -13.1657   21.0728 N   0  0  0  0  0  0  0  0  0  0  0  0
    3.5508  -12.4132   22.2564 C   0  0  0  0  0  0  0  0  0  0  0  0
    2.6900  -13.0408   23.7016 C   0  0  0  0  0  0  0  0  0  0  0  0
    1.1201  -13.9313   23.9927 N   0  0  0  0  0  0  0  0  0  0  0  0
    0.2446  -14.2550   25.4978 C   0  0  0  0  0  0  0  0  0  0  0  0
    0.5796  -13.9075   26.6170 O   0  0  0  0  0  0  0  0  0  0  0  0
   -1.1358  -15.2296   25.5924 C   0  0  0  0  0  0  0  0  0  0  0  0
   -2.0539  -15.7502   24.6525 C   0  0  0  0  0  0  0  0  0  0  0  0
   -3.0863  -16.7042   24.9086 C   0  0  0  0  0  0  0  0  0  0  0  0
   -3.1327  -17.2725   26.1739 C   0  0  0  0  0  0  0  0  0  0  0  0
   -3.8713  -18.3264   26.6642 N   0  0  0  0  0  0  0  0  0  0  0  0
   -3.4126  -18.6576   27.9121 C   0  0  0  0  0  0  0  0  0  0  0  0
   -2.5237  -17.6793   28.3153 C   0  0  0  0  0  0  0  0  0  0  0  0
   -2.2818  -16.8388   27.1838 C   0  0  0  0  0  0  0  0  0  0  0  0
   -1.3442  -15.7924   26.8917 C   0  0  0  0  0  0  0  0  0  0  0  0
   -1.8421  -17.6275   29.6443 C   0  0  0  0  0  0  0  0  0  0  0  0
   -0.9980  -18.8701   29.9307 C   0  0  0  0  0  0  0  0  0  0  0  0
   -1.8150  -20.1276   30.2468 C   0  0  0  0  0  0  0  0  0  0  0  0
   -2.5859  -20.7189   29.0616 C   0  0  0  0  0  0  0  0  0  0  0  0
   -3.8018  -19.8957   28.6261 C   0  0  0  0  0  0  0  0  0  0  0  0
    4.4825  -11.4083   22.0102 N   0  0  0  0  0  0  0  0  0  0  0  0
    7.2602  -12.7268   20.1358 H   0  0  0  0  0  0  0  0  0  0  0  0
    7.0749  -11.0917   19.6520 H   0  0  0  0  0  0  0  0  0  0  0  0
    7.3985  -11.5680   21.4063 H   0  0  0  0  0  0  0  0  0  0  0  0
    4.8232  -13.4052   19.2569 H   0  0  0  0  0  0  0  0  0  0  0  0
    3.1387  -14.0012   20.9769 H   0  0  0  0  0  0  0  0  0  0  0  0
    2.3340  -12.1127   24.0979 H   0  0  0  0  0  0  0  0  0  0  0  0
    3.4144  -13.6119   24.2590 H   0  0  0  0  0  0  0  0  0  0  0  0
    0.5698  -14.2622   23.2063 H   0  0  0  0  0  0  0  0  0  0  0  0
   -1.9303  -15.5352   23.5930 H   0  0  0  0  0  0  0  0  0  0  0  0
   -3.7121  -17.0645   24.0981 H   0  0  0  0  0  0  0  0  0  0  0  0
   -4.5301  -18.8654   26.1213 H   0  0  0  0  0  0  0  0  0  0  0  0
   -0.6735  -15.4993   27.6986 H   0  0  0  0  0  0  0  0  0  0  0  0
   -1.1901  -16.7474   29.6891 H   0  0  0  0  0  0  0  0  0  0  0  0
   -2.5936  -17.4921   30.4321 H   0  0  0  0  0  0  0  0  0  0  0  0
   -0.3150  -19.0707   29.0958 H   0  0  0  0  0  0  0  0  0  0  0  0
   -0.3700  -18.6554   30.8047 H   0  0  0  0  0  0  0  0  0  0  0  0
   -1.1160  -20.8947   30.6038 H   0  0  0  0  0  0  0  0  0  0  0  0
   -2.5027  -19.9279   31.0776 H   0  0  0  0  0  0  0  0  0  0  0  0
   -2.9427  -21.7107   29.3653 H   0  0  0  0  0  0  0  0  0  0  0  0
   -1.9049  -20.8792   28.2162 H   0  0  0  0  0  0  0  0  0  0  0  0
   -4.4057  -20.5158   27.9551 H   0  0  0  0  0  0  0  0  0  0  0  0
   -4.4051  -19.6270   29.4980 H   0  0  0  0  0  0  0  0  0  0  0  0
  1  2  1  0
  2  3  2  0
  3  4  1  0
  4  5  1  0
  5  6  1  0
  6  7  1  0
  7  8  1  0
  8  9  2  0
  8 10  1  0
 10 11  2  0
 11 12  1  0
 12 13  2  0
 13 14  1  0
 14 15  1  0
 15 16  2  0
 16 17  1  0
 17 18  2  0
 16 19  1  0
 19 20  1  0
 20 21  1  0
 21 22  1  0
 22 23  1  0
  5 24  2  0
 24  2  1  0
 18 10  1  0
 17 13  1  0
 23 15  1  0
  1 25  1  0
  1 26  1  0
  1 27  1  0
  3 28  1  0
  4 29  1  0
  6 30  1  0
  6 31  1  0
  7 32  1  0
 11 33  1  0
 12 34  1  0
 14 35  1  0
 18 36  1  0
 19 37  1  0
 19 38  1  0
 20 39  1  0
 20 40  1  0
 21 41  1  0
 21 42  1  0
 22 43  1  0
 22 44  1  0
 23 45  1  0
 23 46  1  0
M  END
>  <Energy>  (1134) 
217.12153127167062

>  <compound_id>  (1134) 
47044

>  <target_id>  (1134) 
1

>  <reference_id>  (1134) 
39

>  <inspiration_ids>  (1134) 
[80, 39]

>  <energy_score>  (1134) 
178.78546269727656

>  <distance_score>  (1134) 
13.882692318384121

>  <path>  (1134) 
/opt/xchem-fragalysis-2/maxwin/BulkDock/SCRATCH/511023/C47044-P39/C47044-P39.minimised.mol

>  <scratch_subdir>  (1134) 
/opt/xchem-fragalysis-2/maxwin/BulkDock/SCRATCH/511023/C47044-P39

>  <fragmenstein_runtime>  (1134) 
55.82662868499756

>  <fragmenstein_outcome>  (1134) 
too moved

>  <fragmenstein_mode>  (1134) 
expansion

>  <fragmenstein_error>  (1134) 


$$$$
C47045-P80
     RDKit          3D

 46 49  0  0  0  0  0  0  0  0999 V2000
    6.2244  -11.8435   29.4210 C   0  0  0  0  0  0  0  0  0  0  0  0
    6.1223  -12.6450   28.2246 N   0  0  0  0  0  0  0  0  0  0  0  0
    6.8078  -12.4009   27.0632 C   0  0  0  0  0  0  0  0  0  0  0  0
    6.5643  -13.3353   26.1771 N   0  0  0  0  0  0  0  0  0  0  0  0
    5.7055  -14.2245   26.8087 C   0  0  0  0  0  0  0  0  0  0  0  0
    5.3589  -13.8032   28.0753 C   0  0  0  0  0  0  0  0  0  0  0  0
    4.5080  -14.4207   29.1645 C   0  0  0  0  0  0  0  0  0  0  0  0
    3.2839  -15.1560   28.8100 N   0  0  0  0  0  0  0  0  0  0  0  0
    2.8097  -16.4654   29.2196 C   0  0  0  0  0  0  0  0  0  0  0  0
    3.3344  -17.3126   29.8879 O   0  0  0  0  0  0  0  0  0  0  0  0
    1.3615  -16.8620   28.8643 C   0  0  0  0  0  0  0  0  0  0  0  0
    0.2482  -16.0613   29.1619 C   0  0  0  0  0  0  0  0  0  0  0  0
   -1.0793  -16.5733   29.1523 C   0  0  0  0  0  0  0  0  0  0  0  0
   -1.2682  -17.9356   28.8707 C   0  0  0  0  0  0  0  0  0  0  0  0
   -2.3943  -18.7306   28.9329 N   0  0  0  0  0  0  0  0  0  0  0  0
   -2.0380  -20.0446   28.7483 C   0  0  0  0  0  0  0  0  0  0  0  0
   -0.7232  -20.0827   28.3353 C   0  0  0  0  0  0  0  0  0  0  0  0
   -0.2026  -18.7648   28.5242 C   0  0  0  0  0  0  0  0  0  0  0  0
    1.1087  -18.2140   28.5206 C   0  0  0  0  0  0  0  0  0  0  0  0
    0.0378  -21.3087   27.9527 C   0  0  0  0  0  0  0  0  0  0  0  0
    0.1341  -22.3270   29.0872 C   0  0  0  0  0  0  0  0  0  0  0  0
   -1.1832  -23.0432   29.3987 C   0  0  0  0  0  0  0  0  0  0  0  0
   -2.2654  -22.1684   30.0393 C   0  0  0  0  0  0  0  0  0  0  0  0
   -2.9339  -21.1676   29.0870 C   0  0  0  0  0  0  0  0  0  0  0  0
    6.5072  -12.4930   30.2531 H   0  0  0  0  0  0  0  0  0  0  0  0
    6.9862  -11.0721   29.2817 H   0  0  0  0  0  0  0  0  0  0  0  0
    5.2539  -11.3766   29.6057 H   0  0  0  0  0  0  0  0  0  0  0  0
    7.4626  -11.5499   26.9261 H   0  0  0  0  0  0  0  0  0  0  0  0
    5.3641  -15.1267   26.3134 H   0  0  0  0  0  0  0  0  0  0  0  0
    4.1719  -13.6374   29.8525 H   0  0  0  0  0  0  0  0  0  0  0  0
    5.1363  -15.1079   29.7430 H   0  0  0  0  0  0  0  0  0  0  0  0
    2.5417  -14.6753   28.3172 H   0  0  0  0  0  0  0  0  0  0  0  0
    0.4000  -15.0365   29.4931 H   0  0  0  0  0  0  0  0  0  0  0  0
   -1.9124  -15.9399   29.4415 H   0  0  0  0  0  0  0  0  0  0  0  0
   -3.2993  -18.4147   29.2546 H   0  0  0  0  0  0  0  0  0  0  0  0
    1.9545  -18.8760   28.3423 H   0  0  0  0  0  0  0  0  0  0  0  0
   -0.4329  -21.7673   27.0741 H   0  0  0  0  0  0  0  0  0  0  0  0
    1.0528  -21.0317   27.6444 H   0  0  0  0  0  0  0  0  0  0  0  0
    0.5228  -21.8521   29.9968 H   0  0  0  0  0  0  0  0  0  0  0  0
    0.8664  -23.0900   28.7945 H   0  0  0  0  0  0  0  0  0  0  0  0
   -0.9570  -23.8567   30.1000 H   0  0  0  0  0  0  0  0  0  0  0  0
   -1.5740  -23.5200   28.4930 H   0  0  0  0  0  0  0  0  0  0  0  0
   -1.8516  -21.6481   30.9127 H   0  0  0  0  0  0  0  0  0  0  0  0
   -3.0392  -22.8423   30.4235 H   0  0  0  0  0  0  0  0  0  0  0  0
   -3.2879  -21.6668   28.1816 H   0  0  0  0  0  0  0  0  0  0  0  0
   -3.8012  -20.7440   29.5967 H   0  0  0  0  0  0  0  0  0  0  0  0
  1  2  1  0
  2  3  1  0
  3  4  2  0
  4  5  1  0
  5  6  2  0
  6  7  1  0
  7  8  1  0
  8  9  1  0
  9 10  2  0
  9 11  1  0
 11 12  2  0
 12 13  1  0
 13 14  2  0
 14 15  1  0
 15 16  1  0
 16 17  2  0
 17 18  1  0
 18 19  2  0
 17 20  1  0
 20 21  1  0
 21 22  1  0
 22 23  1  0
 23 24  1  0
  6  2  1  0
 19 11  1  0
 18 14  1  0
 24 16  1  0
  1 25  1  0
  1 26  1  0
  1 27  1  0
  3 28  1  0
  5 29  1  0
  7 30  1  0
  7 31  1  0
  8 32  1  0
 12 33  1  0
 13 34  1  0
 15 35  1  0
 19 36  1  0
 20 37  1  0
 20 38  1  0
 21 39  1  0
 21 40  1  0
 22 41  1  0
 22 42  1  0
 23 43  1  0
 23 44  1  0
 24 45  1  0
 24 46  1  0
M  END
>  <Energy>  (1135) 
21.103393833725178

>  <compound_id>  (1135) 
47045

>  <target_id>  (1135) 
1

>  <reference_id>  (1135) 
80

>  <inspiration_ids>  (1135) 
[80, 39]

>  <energy_score>  (1135) 
-16.783386685863547

>  <distance_score>  (1135) 
15.238978251427255

>  <path>  (1135) 
/opt/xchem-fragalysis-2/maxwin/BulkDock/SCRATCH/511023/C47045-P80/C47045-P80.minimised.mol

>  <scratch_subdir>  (1135) 
/opt/xchem-fragalysis-2/maxwin/BulkDock/SCRATCH/511023/C47045-P80

>  <fragmenstein_runtime>  (1135) 
67.66109728813171

>  <fragmenstein_outcome>  (1135) 
too moved

>  <fragmenstein_mode>  (1135) 
expansion

>  <fragmenstein_error>  (1135) 


$$$$
C47045-P39
     RDKit          3D

 46 49  0  0  0  0  0  0  0  0999 V2000
   -1.3988  -16.2848   28.3352 C   0  0  0  0  0  0  0  0  0  0  0  0
   -1.8831  -16.4031   26.9807 N   0  0  0  0  0  0  0  0  0  0  0  0
   -2.1268  -15.3512   26.1291 C   0  0  0  0  0  0  0  0  0  0  0  0
   -2.5397  -15.7804   24.9571 N   0  0  0  0  0  0  0  0  0  0  0  0
   -2.6426  -17.1445   25.0982 C   0  0  0  0  0  0  0  0  0  0  0  0
   -2.1586  -17.5832   26.3126 C   0  0  0  0  0  0  0  0  0  0  0  0
   -1.9536  -18.9952   26.8263 C   0  0  0  0  0  0  0  0  0  0  0  0
   -3.2090  -19.7167   26.7708 N   0  0  0  0  0  0  0  0  0  0  0  0
   -3.6802  -20.8744   27.5222 C   0  0  0  0  0  0  0  0  0  0  0  0
   -3.1190  -21.5690   28.3177 O   0  0  0  0  0  0  0  0  0  0  0  0
   -5.1685  -21.1247   27.2805 C   0  0  0  0  0  0  0  0  0  0  0  0
   -5.8430  -19.8252   27.3960 C   0  0  0  0  0  0  0  0  0  0  0  0
   -7.2664  -19.9339   27.7116 C   0  0  0  0  0  0  0  0  0  0  0  0
   -8.3842  -21.4078   27.5089 C   0  0  0  0  0  0  0  0  0  0  0  0
   -9.8782  -21.5531   27.8903 N   0  0  0  0  0  0  0  0  0  0  0  0
  -10.2929  -22.8409   28.0297 C   0  0  0  0  0  0  0  0  0  0  0  0
   -9.1670  -23.6432   27.9845 C   0  0  0  0  0  0  0  0  0  0  0  0
   -7.8135  -22.6907   27.5702 C   0  0  0  0  0  0  0  0  0  0  0  0
   -6.0929  -22.5494   27.4442 C   0  0  0  0  0  0  0  0  0  0  0  0
   -9.3793  -25.1251   28.4234 C   0  0  0  0  0  0  0  0  0  0  0  0
  -10.1284  -25.3979   29.7365 C   0  0  0  0  0  0  0  0  0  0  0  0
  -11.6359  -25.1999   29.6993 C   0  0  0  0  0  0  0  0  0  0  0  0
  -12.0672  -23.7471   29.5803 C   0  0  0  0  0  0  0  0  0  0  0  0
  -11.7359  -23.1440   28.2267 C   0  0  0  0  0  0  0  0  0  0  0  0
   -1.2902  -15.2285   28.5936 H   0  0  0  0  0  0  0  0  0  0  0  0
   -2.1233  -16.7569   29.0034 H   0  0  0  0  0  0  0  0  0  0  0  0
   -0.4288  -16.7838   28.4005 H   0  0  0  0  0  0  0  0  0  0  0  0
   -1.9585  -14.3186   26.4077 H   0  0  0  0  0  0  0  0  0  0  0  0
   -3.0131  -17.7733   24.2949 H   0  0  0  0  0  0  0  0  0  0  0  0
   -1.5851  -19.0205   27.8551 H   0  0  0  0  0  0  0  0  0  0  0  0
   -1.2380  -19.5247   26.1894 H   0  0  0  0  0  0  0  0  0  0  0  0
   -3.9299  -19.4256   26.1240 H   0  0  0  0  0  0  0  0  0  0  0  0
   -5.3395  -18.8807   27.5764 H   0  0  0  0  0  0  0  0  0  0  0  0
   -7.7276  -19.0305   28.1618 H   0  0  0  0  0  0  0  0  0  0  0  0
  -10.4449  -20.7353   28.0427 H   0  0  0  0  0  0  0  0  0  0  0  0
   -5.4850  -23.4072   27.6277 H   0  0  0  0  0  0  0  0  0  0  0  0
   -8.4350  -25.6285   28.5869 H   0  0  0  0  0  0  0  0  0  0  0  0
   -9.8945  -25.6473   27.6078 H   0  0  0  0  0  0  0  0  0  0  0  0
   -9.9683  -26.4565   29.9817 H   0  0  0  0  0  0  0  0  0  0  0  0
   -9.6923  -24.8432   30.5715 H   0  0  0  0  0  0  0  0  0  0  0  0
  -12.0723  -25.7935   28.8869 H   0  0  0  0  0  0  0  0  0  0  0  0
  -12.0493  -25.6009   30.6329 H   0  0  0  0  0  0  0  0  0  0  0  0
  -13.1554  -23.7089   29.7119 H   0  0  0  0  0  0  0  0  0  0  0  0
  -11.6356  -23.1516   30.3936 H   0  0  0  0  0  0  0  0  0  0  0  0
  -12.0914  -23.7906   27.4156 H   0  0  0  0  0  0  0  0  0  0  0  0
  -12.2926  -22.2100   28.1468 H   0  0  0  0  0  0  0  0  0  0  0  0
  1  2  1  0
  2  3  1  0
  3  4  2  0
  4  5  1  0
  5  6  2  0
  6  7  1  0
  7  8  1  0
  8  9  1  0
  9 10  2  0
  9 11  1  0
 11 12  2  0
 12 13  1  0
 13 14  2  0
 14 15  1  0
 15 16  1  0
 16 17  2  0
 17 18  1  0
 18 19  2  0
 17 20  1  0
 20 21  1  0
 21 22  1  0
 22 23  1  0
 23 24  1  0
  6  2  1  0
 19 11  1  0
 18 14  1  0
 24 16  1  0
  1 25  1  0
  1 26  1  0
  1 27  1  0
  3 28  1  0
  5 29  1  0
  7 30  1  0
  7 31  1  0
  8 32  1  0
 12 33  1  0
 13 34  1  0
 15 35  1  0
 19 36  1  0
 20 37  1  0
 20 38  1  0
 21 39  1  0
 21 40  1  0
 22 41  1  0
 22 42  1  0
 23 43  1  0
 23 44  1  0
 24 45  1  0
 24 46  1  0
M  END
>  <Energy>  (1136) 
183.02996204026687

>  <compound_id>  (1136) 
47045

>  <target_id>  (1136) 
1

>  <reference_id>  (1136) 
39

>  <inspiration_ids>  (1136) 
[80, 39]

>  <energy_score>  (1136) 
145.14318152067773

>  <distance_score>  (1136) 
14.55143424122802

>  <path>  (1136) 
/opt/xchem-fragalysis-2/maxwin/BulkDock/SCRATCH/511023/C47045-P39/C47045-P39.minimised.mol

>  <scratch_subdir>  (1136) 
/opt/xchem-fragalysis-2/maxwin/BulkDock/SCRATCH/511023/C47045-P39

>  <fragmenstein_runtime>  (1136) 
28.924410343170166

>  <fragmenstein_outcome>  (1136) 
too moved

>  <fragmenstein_mode>  (1136) 
expansion

>  <fragmenstein_error>  (1136) 


$$$$
C47045-P80
     RDKit          3D

 46 49  0  0  0  0  0  0  0  0999 V2000
    6.2244  -11.8435   29.4210 C   0  0  0  0  0  0  0  0  0  0  0  0
    6.1223  -12.6450   28.2246 N   0  0  0  0  0  0  0  0  0  0  0  0
    6.8078  -12.4009   27.0632 C   0  0  0  0  0  0  0  0  0  0  0  0
    6.5643  -13.3353   26.1771 N   0  0  0  0  0  0  0  0  0  0  0  0
    5.7055  -14.2245   26.8087 C   0  0  0  0  0  0  0  0  0  0  0  0
    5.3589  -13.8032   28.0753 C   0  0  0  0  0  0  0  0  0  0  0  0
    4.5080  -14.4207   29.1645 C   0  0  0  0  0  0  0  0  0  0  0  0
    3.2839  -15.1560   28.8100 N   0  0  0  0  0  0  0  0  0  0  0  0
    2.8097  -16.4654   29.2196 C   0  0  0  0  0  0  0  0  0  0  0  0
    3.3344  -17.3126   29.8879 O   0  0  0  0  0  0  0  0  0  0  0  0
    1.3615  -16.8620   28.8643 C   0  0  0  0  0  0  0  0  0  0  0  0
    0.2482  -16.0613   29.1619 C   0  0  0  0  0  0  0  0  0  0  0  0
   -1.0793  -16.5733   29.1523 C   0  0  0  0  0  0  0  0  0  0  0  0
   -1.2682  -17.9356   28.8707 C   0  0  0  0  0  0  0  0  0  0  0  0
   -2.3943  -18.7306   28.9329 N   0  0  0  0  0  0  0  0  0  0  0  0
   -2.0380  -20.0446   28.7483 C   0  0  0  0  0  0  0  0  0  0  0  0
   -0.7232  -20.0827   28.3353 C   0  0  0  0  0  0  0  0  0  0  0  0
   -0.2026  -18.7648   28.5242 C   0  0  0  0  0  0  0  0  0  0  0  0
    1.1087  -18.2140   28.5206 C   0  0  0  0  0  0  0  0  0  0  0  0
    0.0378  -21.3087   27.9527 C   0  0  0  0  0  0  0  0  0  0  0  0
    0.1341  -22.3270   29.0872 C   0  0  0  0  0  0  0  0  0  0  0  0
   -1.1832  -23.0432   29.3987 C   0  0  0  0  0  0  0  0  0  0  0  0
   -2.2654  -22.1684   30.0393 C   0  0  0  0  0  0  0  0  0  0  0  0
   -2.9339  -21.1676   29.0870 C   0  0  0  0  0  0  0  0  0  0  0  0
    6.5072  -12.4930   30.2531 H   0  0  0  0  0  0  0  0  0  0  0  0
    6.9862  -11.0721   29.2817 H   0  0  0  0  0  0  0  0  0  0  0  0
    5.2539  -11.3766   29.6057 H   0  0  0  0  0  0  0  0  0  0  0  0
    7.4626  -11.5499   26.9261 H   0  0  0  0  0  0  0  0  0  0  0  0
    5.3641  -15.1267   26.3134 H   0  0  0  0  0  0  0  0  0  0  0  0
    4.1719  -13.6374   29.8525 H   0  0  0  0  0  0  0  0  0  0  0  0
    5.1363  -15.1079   29.7430 H   0  0  0  0  0  0  0  0  0  0  0  0
    2.5417  -14.6753   28.3172 H   0  0  0  0  0  0  0  0  0  0  0  0
    0.4000  -15.0365   29.4931 H   0  0  0  0  0  0  0  0  0  0  0  0
   -1.9124  -15.9399   29.4415 H   0  0  0  0  0  0  0  0  0  0  0  0
   -3.2993  -18.4147   29.2546 H   0  0  0  0  0  0  0  0  0  0  0  0
    1.9545  -18.8760   28.3423 H   0  0  0  0  0  0  0  0  0  0  0  0
   -0.4329  -21.7673   27.0741 H   0  0  0  0  0  0  0  0  0  0  0  0
    1.0528  -21.0317   27.6444 H   0  0  0  0  0  0  0  0  0  0  0  0
    0.5228  -21.8521   29.9968 H   0  0  0  0  0  0  0  0  0  0  0  0
    0.8664  -23.0900   28.7945 H   0  0  0  0  0  0  0  0  0  0  0  0
   -0.9570  -23.8567   30.1000 H   0  0  0  0  0  0  0  0  0  0  0  0
   -1.5740  -23.5200   28.4930 H   0  0  0  0  0  0  0  0  0  0  0  0
   -1.8516  -21.6481   30.9127 H   0  0  0  0  0  0  0  0  0  0  0  0
   -3.0392  -22.8423   30.4235 H   0  0  0  0  0  0  0  0  0  0  0  0
   -3.2879  -21.6668   28.1816 H   0  0  0  0  0  0  0  0  0  0  0  0
   -3.8012  -20.7440   29.5967 H   0  0  0  0  0  0  0  0  0  0  0  0
  1  2  1  0
  2  3  1  0
  3  4  2  0
  4  5  1  0
  5  6  2  0
  6  7  1  0
  7  8  1  0
  8  9  1  0
  9 10  2  0
  9 11  1  0
 11 12  2  0
 12 13  1  0
 13 14  2  0
 14 15  1  0
 15 16  1  0
 16 17  2  0
 17 18  1  0
 18 19  2  0
 17 20  1  0
 20 21  1  0
 21 22  1  0
 22 23  1  0
 23 24  1  0
  6  2  1  0
 19 11  1  0
 18 14  1  0
 24 16  1  0
  1 25  1  0
  1 26  1  0
  1 27  1  0
  3 28  1  0
  5 29  1  0
  7 30  1  0
  7 31  1  0
  8 32  1  0
 12 33  1  0
 13 34  1  0
 15 35  1  0
 19 36  1  0
 20 37  1  0
 20 38  1  0
 21 39  1  0
 21 40  1  0
 22 41  1  0
 22 42  1  0
 23 43  1  0
 23 44  1  0
 24 45  1  0
 24 46  1  0
M  END
>  <Energy>  (1137) 
21.103393833725178

>  <compound_id>  (1137) 
47045

>  <target_id>  (1137) 
1

>  <reference_id>  (1137) 
80

>  <inspiration_ids>  (1137) 
[80, 39]

>  <energy_score>  (1137) 
-16.783386685863547

>  <distance_score>  (1137) 
15.238978251427255

>  <path>  (1137) 
/opt/xchem-fragalysis-2/maxwin/BulkDock/SCRATCH/511023/C47045-P80/C47045-P80.minimised.mol

>  <scratch_subdir>  (1137) 
/opt/xchem-fragalysis-2/maxwin/BulkDock/SCRATCH/511023/C47045-P80

>  <fragmenstein_runtime>  (1137) 
69.73630356788635

>  <fragmenstein_outcome>  (1137) 
too moved

>  <fragmenstein_mode>  (1137) 
expansion

>  <fragmenstein_error>  (1137) 


$$$$
C47045-P39
     RDKit          3D

 46 49  0  0  0  0  0  0  0  0999 V2000
   -1.3988  -16.2848   28.3352 C   0  0  0  0  0  0  0  0  0  0  0  0
   -1.8831  -16.4031   26.9807 N   0  0  0  0  0  0  0  0  0  0  0  0
   -2.1268  -15.3512   26.1291 C   0  0  0  0  0  0  0  0  0  0  0  0
   -2.5397  -15.7804   24.9571 N   0  0  0  0  0  0  0  0  0  0  0  0
   -2.6426  -17.1445   25.0982 C   0  0  0  0  0  0  0  0  0  0  0  0
   -2.1586  -17.5832   26.3126 C   0  0  0  0  0  0  0  0  0  0  0  0
   -1.9536  -18.9952   26.8263 C   0  0  0  0  0  0  0  0  0  0  0  0
   -3.2090  -19.7167   26.7708 N   0  0  0  0  0  0  0  0  0  0  0  0
   -3.6802  -20.8744   27.5222 C   0  0  0  0  0  0  0  0  0  0  0  0
   -3.1190  -21.5690   28.3177 O   0  0  0  0  0  0  0  0  0  0  0  0
   -5.1685  -21.1247   27.2805 C   0  0  0  0  0  0  0  0  0  0  0  0
   -5.8430  -19.8252   27.3960 C   0  0  0  0  0  0  0  0  0  0  0  0
   -7.2664  -19.9339   27.7116 C   0  0  0  0  0  0  0  0  0  0  0  0
   -8.3842  -21.4078   27.5089 C   0  0  0  0  0  0  0  0  0  0  0  0
   -9.8782  -21.5531   27.8903 N   0  0  0  0  0  0  0  0  0  0  0  0
  -10.2929  -22.8409   28.0297 C   0  0  0  0  0  0  0  0  0  0  0  0
   -9.1670  -23.6432   27.9845 C   0  0  0  0  0  0  0  0  0  0  0  0
   -7.8135  -22.6907   27.5702 C   0  0  0  0  0  0  0  0  0  0  0  0
   -6.0929  -22.5494   27.4442 C   0  0  0  0  0  0  0  0  0  0  0  0
   -9.3793  -25.1251   28.4234 C   0  0  0  0  0  0  0  0  0  0  0  0
  -10.1284  -25.3979   29.7365 C   0  0  0  0  0  0  0  0  0  0  0  0
  -11.6359  -25.1999   29.6993 C   0  0  0  0  0  0  0  0  0  0  0  0
  -12.0672  -23.7471   29.5803 C   0  0  0  0  0  0  0  0  0  0  0  0
  -11.7359  -23.1440   28.2267 C   0  0  0  0  0  0  0  0  0  0  0  0
   -1.2902  -15.2285   28.5936 H   0  0  0  0  0  0  0  0  0  0  0  0
   -2.1233  -16.7569   29.0034 H   0  0  0  0  0  0  0  0  0  0  0  0
   -0.4288  -16.7838   28.4005 H   0  0  0  0  0  0  0  0  0  0  0  0
   -1.9585  -14.3186   26.4077 H   0  0  0  0  0  0  0  0  0  0  0  0
   -3.0131  -17.7733   24.2949 H   0  0  0  0  0  0  0  0  0  0  0  0
   -1.5851  -19.0205   27.8551 H   0  0  0  0  0  0  0  0  0  0  0  0
   -1.2380  -19.5247   26.1894 H   0  0  0  0  0  0  0  0  0  0  0  0
   -3.9299  -19.4256   26.1240 H   0  0  0  0  0  0  0  0  0  0  0  0
   -5.3395  -18.8807   27.5764 H   0  0  0  0  0  0  0  0  0  0  0  0
   -7.7276  -19.0305   28.1618 H   0  0  0  0  0  0  0  0  0  0  0  0
  -10.4449  -20.7353   28.0427 H   0  0  0  0  0  0  0  0  0  0  0  0
   -5.4850  -23.4072   27.6277 H   0  0  0  0  0  0  0  0  0  0  0  0
   -8.4350  -25.6285   28.5869 H   0  0  0  0  0  0  0  0  0  0  0  0
   -9.8945  -25.6473   27.6078 H   0  0  0  0  0  0  0  0  0  0  0  0
   -9.9683  -26.4565   29.9817 H   0  0  0  0  0  0  0  0  0  0  0  0
   -9.6923  -24.8432   30.5715 H   0  0  0  0  0  0  0  0  0  0  0  0
  -12.0723  -25.7935   28.8869 H   0  0  0  0  0  0  0  0  0  0  0  0
  -12.0493  -25.6009   30.6329 H   0  0  0  0  0  0  0  0  0  0  0  0
  -13.1554  -23.7089   29.7119 H   0  0  0  0  0  0  0  0  0  0  0  0
  -11.6356  -23.1516   30.3936 H   0  0  0  0  0  0  0  0  0  0  0  0
  -12.0914  -23.7906   27.4156 H   0  0  0  0  0  0  0  0  0  0  0  0
  -12.2926  -22.2100   28.1468 H   0  0  0  0  0  0  0  0  0  0  0  0
  1  2  1  0
  2  3  1  0
  3  4  2  0
  4  5  1  0
  5  6  2  0
  6  7  1  0
  7  8  1  0
  8  9  1  0
  9 10  2  0
  9 11  1  0
 11 12  2  0
 12 13  1  0
 13 14  2  0
 14 15  1  0
 15 16  1  0
 16 17  2  0
 17 18  1  0
 18 19  2  0
 17 20  1  0
 20 21  1  0
 21 22  1  0
 22 23  1  0
 23 24  1  0
  6  2  1  0
 19 11  1  0
 18 14  1  0
 24 16  1  0
  1 25  1  0
  1 26  1  0
  1 27  1  0
  3 28  1  0
  5 29  1  0
  7 30  1  0
  7 31  1  0
  8 32  1  0
 12 33  1  0
 13 34  1  0
 15 35  1  0
 19 36  1  0
 20 37  1  0
 20 38  1  0
 21 39  1  0
 21 40  1  0
 22 41  1  0
 22 42  1  0
 23 43  1  0
 23 44  1  0
 24 45  1  0
 24 46  1  0
M  END
>  <Energy>  (1138) 
183.02996204026687

>  <compound_id>  (1138) 
47045

>  <target_id>  (1138) 
1

>  <reference_id>  (1138) 
39

>  <inspiration_ids>  (1138) 
[80, 39]

>  <energy_score>  (1138) 
145.14318152067773

>  <distance_score>  (1138) 
14.55143424122802

>  <path>  (1138) 
/opt/xchem-fragalysis-2/maxwin/BulkDock/SCRATCH/511023/C47045-P39/C47045-P39.minimised.mol

>  <scratch_subdir>  (1138) 
/opt/xchem-fragalysis-2/maxwin/BulkDock/SCRATCH/511023/C47045-P39

>  <fragmenstein_runtime>  (1138) 
29.45032238960266

>  <fragmenstein_outcome>  (1138) 
too moved

>  <fragmenstein_mode>  (1138) 
expansion

>  <fragmenstein_error>  (1138) 


$$$$
C47046-P80
     RDKit          3D

 53 57  0  0  0  0  0  0  0  0999 V2000
   -1.6086  -13.7599   25.3465 C   0  0  0  0  0  0  0  0  0  0  0  0
   -0.9017  -14.5508   23.8108 C   0  0  0  0  0  0  0  0  0  0  0  0
   -2.5188  -15.6169   24.4320 N   0  0  0  0  0  0  0  0  0  0  0  0
   -2.6550  -17.1750   25.4691 C   0  0  0  0  0  0  0  0  0  0  0  0
   -1.6893  -17.8266   25.8537 O   0  0  0  0  0  0  0  0  0  0  0  0
   -4.1907  -17.9725   26.0583 C   0  0  0  0  0  0  0  0  0  0  0  0
   -5.0808  -17.1204   26.6257 C   0  0  0  0  0  0  0  0  0  0  0  0
   -6.0970  -17.6737   27.4439 C   0  0  0  0  0  0  0  0  0  0  0  0
   -6.3698  -19.0769   27.7412 C   0  0  0  0  0  0  0  0  0  0  0  0
   -7.4941  -19.5102   28.2621 N   0  0  0  0  0  0  0  0  0  0  0  0
   -8.0067  -20.9724   27.7298 C   0  0  0  0  0  0  0  0  0  0  0  0
   -6.8834  -21.8726   27.6646 C   0  0  0  0  0  0  0  0  0  0  0  0
   -5.7368  -20.2898   27.5224 C   0  0  0  0  0  0  0  0  0  0  0  0
   -4.4862  -19.6022   26.5621 C   0  0  0  0  0  0  0  0  0  0  0  0
   -8.2836  -23.1097   27.9482 C   0  0  0  0  0  0  0  0  0  0  0  0
   -9.7009  -23.6419   27.4995 C   0  0  0  0  0  0  0  0  0  0  0  0
  -10.6136  -22.7432   28.2454 C   0  0  0  0  0  0  0  0  0  0  0  0
   -9.9226  -21.3428   28.2524 C   0  0  0  0  0  0  0  0  0  0  0  0
    0.2565  -13.9214   22.1318 C   0  0  0  0  0  0  0  0  0  0  0  0
    0.4622  -11.8367   22.5258 C   0  0  0  0  0  0  0  0  0  0  0  0
    0.9437  -10.5178   21.0782 C   0  0  0  0  0  0  0  0  0  0  0  0
    2.2227  -10.5120   19.4304 C   0  0  0  0  0  0  0  0  0  0  0  0
    2.0020   -9.0950   18.6932 N   0  0  0  0  0  0  0  0  0  0  0  0
    2.6966   -8.6550   17.6697 C   0  0  0  0  0  0  0  0  0  0  0  0
    2.3143   -7.3920   17.3083 C   0  0  0  0  0  0  0  0  0  0  0  0
    1.2869   -7.0042   18.0951 N   0  0  0  0  0  0  0  0  0  0  0  0
    1.0555   -8.0568   18.8587 C   0  0  0  0  0  0  0  0  0  0  0  0
    3.4186  -12.3444   20.0412 C   0  0  0  0  0  0  0  0  0  0  0  0
    2.1659  -13.9510   20.8271 C   0  0  0  0  0  0  0  0  0  0  0  0
   -2.0748  -14.5146   26.0081 H   0  0  0  0  0  0  0  0  0  0  0  0
   -0.7651  -13.2738   25.7555 H   0  0  0  0  0  0  0  0  0  0  0  0
   -2.4365  -12.9997   25.3600 H   0  0  0  0  0  0  0  0  0  0  0  0
    0.0123  -14.4692   24.3912 H   0  0  0  0  0  0  0  0  0  0  0  0
   -3.4491  -15.3064   24.1699 H   0  0  0  0  0  0  0  0  0  0  0  0
   -4.9900  -16.0450   26.5208 H   0  0  0  0  0  0  0  0  0  0  0  0
   -6.8119  -16.9481   27.8471 H   0  0  0  0  0  0  0  0  0  0  0  0
   -8.2049  -18.8652   28.5691 H   0  0  0  0  0  0  0  0  0  0  0  0
   -3.8048  -20.3503   26.1446 H   0  0  0  0  0  0  0  0  0  0  0  0
   -8.6056  -22.6439   28.8174 H   0  0  0  0  0  0  0  0  0  0  0  0
   -8.2615  -24.0681   28.5184 H   0  0  0  0  0  0  0  0  0  0  0  0
   -9.9498  -23.8169   26.4568 H   0  0  0  0  0  0  0  0  0  0  0  0
   -9.8914  -24.6536   27.9036 H   0  0  0  0  0  0  0  0  0  0  0  0
  -10.7865  -23.1013   29.2662 H   0  0  0  0  0  0  0  0  0  0  0  0
  -11.6110  -22.7060   27.7884 H   0  0  0  0  0  0  0  0  0  0  0  0
  -10.5242  -21.0320   27.4084 H   0  0  0  0  0  0  0  0  0  0  0  0
  -10.2330  -20.8950   29.2118 H   0  0  0  0  0  0  0  0  0  0  0  0
   -0.4244  -11.1554   22.4938 H   0  0  0  0  0  0  0  0  0  0  0  0
    0.4435   -9.5407   21.2473 H   0  0  0  0  0  0  0  0  0  0  0  0
    3.3541   -9.4499   17.3897 H   0  0  0  0  0  0  0  0  0  0  0  0
    2.6968   -6.7585   16.5201 H   0  0  0  0  0  0  0  0  0  0  0  0
    0.2584   -8.1161   19.5851 H   0  0  0  0  0  0  0  0  0  0  0  0
    4.3073  -12.7015   19.4744 H   0  0  0  0  0  0  0  0  0  0  0  0
    2.9811  -14.3615   21.4790 H   0  0  0  0  0  0  0  0  0  0  0  0
  1  2  1  0
  2  3  1  0
  3  4  1  0
  4  5  2  0
  4  6  1  0
  6  7  2  0
  7  8  1  0
  8  9  2  0
  9 10  1  0
 10 11  1  0
 11 12  2  0
 12 13  1  0
 13 14  2  0
 12 15  1  0
 15 16  1  0
 16 17  1  0
 17 18  1  0
  2 19  1  0
 19 20  2  0
 20 21  1  0
 21 22  2  0
 22 23  1  0
 23 24  1  0
 24 25  2  0
 25 26  1  0
 26 27  2  0
 22 28  1  0
 28 29  2  0
 14  6  1  0
 29 19  1  0
 13  9  1  0
 27 23  1  0
 18 11  1  0
  1 30  1  0
  1 31  1  0
  1 32  1  0
  2 33  1  0
  3 34  1  0
  7 35  1  0
  8 36  1  0
 10 37  1  0
 14 38  1  0
 15 39  1  0
 15 40  1  0
 16 41  1  0
 16 42  1  0
 17 43  1  0
 17 44  1  0
 18 45  1  0
 18 46  1  0
 20 47  1  0
 21 48  1  0
 24 49  1  0
 25 50  1  0
 27 51  1  0
 28 52  1  0
 29 53  1  0
M  END
>  <Energy>  (1139) 
2696.5258599990188

>  <compound_id>  (1139) 
47046

>  <target_id>  (1139) 
1

>  <reference_id>  (1139) 
80

>  <inspiration_ids>  (1139) 
[80, 39]

>  <energy_score>  (1139) 
2603.6779140710496

>  <distance_score>  (1139) 
10.83186362263514

>  <path>  (1139) 
/opt/xchem-fragalysis-2/maxwin/BulkDock/SCRATCH/511023/C47046-P80/C47046-P80.minimised.mol

>  <scratch_subdir>  (1139) 
/opt/xchem-fragalysis-2/maxwin/BulkDock/SCRATCH/511023/C47046-P80

>  <fragmenstein_runtime>  (1139) 
56.569546937942505

>  <fragmenstein_outcome>  (1139) 
too moved

>  <fragmenstein_mode>  (1139) 
expansion

>  <fragmenstein_error>  (1139) 


$$$$
C47046-P39
     RDKit          3D

 53 57  0  0  0  0  0  0  0  0999 V2000
    0.7511  -14.1795   24.0899 C   0  0  0  0  0  0  0  0  0  0  0  0
   -0.7438  -14.2299   23.6137 C   0  0  0  0  0  0  0  0  0  0  0  0
   -2.1619  -15.2092   24.7583 N   0  0  0  0  0  0  0  0  0  0  0  0
   -3.1970  -15.6971   24.7268 C   0  0  0  0  0  0  0  0  0  0  0  0
   -3.6895  -15.3585   23.2194 O   0  0  0  0  0  0  0  0  0  0  0  0
   -4.4240  -16.6591   25.8151 C   0  0  0  0  0  0  0  0  0  0  0  0
   -5.3513  -15.8329   26.4512 C   0  0  0  0  0  0  0  0  0  0  0  0
   -6.5380  -16.2842   27.2531 C   0  0  0  0  0  0  0  0  0  0  0  0
   -7.0096  -17.6320   27.5750 C   0  0  0  0  0  0  0  0  0  0  0  0
   -8.2349  -18.0039   28.2031 N   0  0  0  0  0  0  0  0  0  0  0  0
   -8.5026  -19.4321   28.3672 C   0  0  0  0  0  0  0  0  0  0  0  0
   -7.3405  -20.0755   27.7612 C   0  0  0  0  0  0  0  0  0  0  0  0
   -6.2871  -18.7608   27.1377 C   0  0  0  0  0  0  0  0  0  0  0  0
   -4.9676  -18.1941   26.1910 C   0  0  0  0  0  0  0  0  0  0  0  0
   -7.7994  -22.0571   27.7250 C   0  0  0  0  0  0  0  0  0  0  0  0
   -9.2053  -22.8077   27.9633 C   0  0  0  0  0  0  0  0  0  0  0  0
  -10.4183  -21.9428   28.1718 C   0  0  0  0  0  0  0  0  0  0  0  0
  -10.1204  -20.6409   28.8937 C   0  0  0  0  0  0  0  0  0  0  0  0
   -0.4443  -12.4904   22.5421 C   0  0  0  0  0  0  0  0  0  0  0  0
    0.2538  -11.2149   22.5302 C   0  0  0  0  0  0  0  0  0  0  0  0
   -0.1029   -9.8482   21.7688 C   0  0  0  0  0  0  0  0  0  0  0  0
   -1.1323   -9.5601   20.8532 C   0  0  0  0  0  0  0  0  0  0  0  0
   -0.9664   -8.4506   19.8815 N   0  0  0  0  0  0  0  0  0  0  0  0
   -1.6854   -8.2148   18.7216 C   0  0  0  0  0  0  0  0  0  0  0  0
   -0.9829   -7.2714   17.9962 C   0  0  0  0  0  0  0  0  0  0  0  0
    0.1085   -6.8330   18.6766 N   0  0  0  0  0  0  0  0  0  0  0  0
    0.0740   -7.5279   19.7913 C   0  0  0  0  0  0  0  0  0  0  0  0
   -1.9159  -10.6579   20.5709 C   0  0  0  0  0  0  0  0  0  0  0  0
   -1.5760  -11.9315   21.2067 C   0  0  0  0  0  0  0  0  0  0  0  0
    1.4340  -14.7172   23.4308 H   0  0  0  0  0  0  0  0  0  0  0  0
    1.5748  -13.3377   24.1538 H   0  0  0  0  0  0  0  0  0  0  0  0
    0.8121  -13.9944   25.1797 H   0  0  0  0  0  0  0  0  0  0  0  0
   -0.9600  -13.7123   24.5562 H   0  0  0  0  0  0  0  0  0  0  0  0
   -1.3786  -14.9209   25.1631 H   0  0  0  0  0  0  0  0  0  0  0  0
   -5.2448  -14.7519   26.3301 H   0  0  0  0  0  0  0  0  0  0  0  0
   -7.1584  -15.4598   27.6235 H   0  0  0  0  0  0  0  0  0  0  0  0
   -8.9151  -17.3115   28.4701 H   0  0  0  0  0  0  0  0  0  0  0  0
   -4.4221  -19.0183   25.7239 H   0  0  0  0  0  0  0  0  0  0  0  0
   -6.8413  -22.5454   27.9536 H   0  0  0  0  0  0  0  0  0  0  0  0
   -7.7888  -22.5892   26.7644 H   0  0  0  0  0  0  0  0  0  0  0  0
   -9.4293  -23.5135   27.1406 H   0  0  0  0  0  0  0  0  0  0  0  0
   -9.1605  -23.6415   28.6641 H   0  0  0  0  0  0  0  0  0  0  0  0
  -11.0373  -21.7418   27.2938 H   0  0  0  0  0  0  0  0  0  0  0  0
  -11.1166  -22.5237   28.7951 H   0  0  0  0  0  0  0  0  0  0  0  0
  -11.1554  -20.3586   29.1615 H   0  0  0  0  0  0  0  0  0  0  0  0
  -10.0542  -20.9170   29.9658 H   0  0  0  0  0  0  0  0  0  0  0  0
    1.1940  -11.5353   22.9762 H   0  0  0  0  0  0  0  0  0  0  0  0
    0.6403   -9.0544   21.8276 H   0  0  0  0  0  0  0  0  0  0  0  0
   -2.5769   -8.7720   18.4829 H   0  0  0  0  0  0  0  0  0  0  0  0
   -1.2290   -6.8843   17.0164 H   0  0  0  0  0  0  0  0  0  0  0  0
    0.7354   -7.3626   20.6171 H   0  0  0  0  0  0  0  0  0  0  0  0
   -2.6287  -10.6708   19.7527 H   0  0  0  0  0  0  0  0  0  0  0  0
   -2.1177  -12.7497   20.6778 H   0  0  0  0  0  0  0  0  0  0  0  0
  1  2  1  0
  2  3  1  0
  3  4  1  0
  4  5  2  0
  4  6  1  0
  6  7  2  0
  7  8  1  0
  8  9  2  0
  9 10  1  0
 10 11  1  0
 11 12  2  0
 12 13  1  0
 13 14  2  0
 12 15  1  0
 15 16  1  0
 16 17  1  0
 17 18  1  0
  2 19  1  0
 19 20  2  0
 20 21  1  0
 21 22  2  0
 22 23  1  0
 23 24  1  0
 24 25  2  0
 25 26  1  0
 26 27  2  0
 22 28  1  0
 28 29  2  0
 14  6  1  0
 29 19  1  0
 13  9  1  0
 27 23  1  0
 18 11  1  0
  1 30  1  0
  1 31  1  0
  1 32  1  0
  2 33  1  0
  3 34  1  0
  7 35  1  0
  8 36  1  0
 10 37  1  0
 14 38  1  0
 15 39  1  0
 15 40  1  0
 16 41  1  0
 16 42  1  0
 17 43  1  0
 17 44  1  0
 18 45  1  0
 18 46  1  0
 20 47  1  0
 21 48  1  0
 24 49  1  0
 25 50  1  0
 27 51  1  0
 28 52  1  0
 29 53  1  0
M  END
>  <Energy>  (1140) 
1098.18692092582

>  <compound_id>  (1140) 
47046

>  <target_id>  (1140) 
1

>  <reference_id>  (1140) 
39

>  <inspiration_ids>  (1140) 
[80, 39]

>  <energy_score>  (1140) 
1005.3389749978965

>  <distance_score>  (1140) 
12.251428066794208

>  <path>  (1140) 
/opt/xchem-fragalysis-2/maxwin/BulkDock/SCRATCH/511023/C47046-P39/C47046-P39.minimised.mol

>  <scratch_subdir>  (1140) 
/opt/xchem-fragalysis-2/maxwin/BulkDock/SCRATCH/511023/C47046-P39

>  <fragmenstein_runtime>  (1140) 
62.76771330833435

>  <fragmenstein_outcome>  (1140) 
too moved

>  <fragmenstein_mode>  (1140) 
expansion

>  <fragmenstein_error>  (1140) 


$$$$
C47044-P80
     RDKit          3D

 46 49  0  0  0  0  0  0  0  0999 V2000
   -0.0801  -13.7254   27.0527 C   0  0  0  0  0  0  0  0  0  0  0  0
   -1.5595  -13.8162   27.2455 C   0  0  0  0  0  0  0  0  0  0  0  0
   -2.4811  -12.7989   27.2757 C   0  0  0  0  0  0  0  0  0  0  0  0
   -3.6913  -13.4064   27.5094 N   0  0  0  0  0  0  0  0  0  0  0  0
   -3.5259  -14.7872   27.6105 C   0  0  0  0  0  0  0  0  0  0  0  0
   -4.7670  -15.7541   27.4805 C   0  0  0  0  0  0  0  0  0  0  0  0
   -5.4629  -16.6506   28.4935 N   0  0  0  0  0  0  0  0  0  0  0  0
   -6.9000  -16.8038   28.8254 C   0  0  0  0  0  0  0  0  0  0  0  0
   -7.8608  -16.1964   28.4326 O   0  0  0  0  0  0  0  0  0  0  0  0
   -7.3615  -18.0021   29.7485 C   0  0  0  0  0  0  0  0  0  0  0  0
   -7.4548  -17.8834   31.5838 C   0  0  0  0  0  0  0  0  0  0  0  0
   -8.8565  -19.0423   32.6152 C   0  0  0  0  0  0  0  0  0  0  0  0
   -9.9911  -20.2343   31.6185 C   0  0  0  0  0  0  0  0  0  0  0  0
  -10.9999  -21.1815   31.7781 N   0  0  0  0  0  0  0  0  0  0  0  0
  -11.3571  -21.8265   30.5917 C   0  0  0  0  0  0  0  0  0  0  0  0
  -10.6268  -21.5250   29.4753 C   0  0  0  0  0  0  0  0  0  0  0  0
   -9.9230  -20.3136   29.7509 C   0  0  0  0  0  0  0  0  0  0  0  0
   -8.5208  -19.1484   28.8087 C   0  0  0  0  0  0  0  0  0  0  0  0
  -10.2771  -22.5208   28.4056 C   0  0  0  0  0  0  0  0  0  0  0  0
  -10.3019  -24.0163   28.6735 C   0  0  0  0  0  0  0  0  0  0  0  0
  -11.6965  -24.5116   28.6060 C   0  0  0  0  0  0  0  0  0  0  0  0
  -12.6407  -23.4455   29.1240 C   0  0  0  0  0  0  0  0  0  0  0  0
  -12.3343  -22.9194   30.5777 C   0  0  0  0  0  0  0  0  0  0  0  0
   -2.2235  -15.0377   27.4278 N   0  0  0  0  0  0  0  0  0  0  0  0
    0.4298  -14.2345   27.8765 H   0  0  0  0  0  0  0  0  0  0  0  0
    0.1811  -14.2293   26.1259 H   0  0  0  0  0  0  0  0  0  0  0  0
    0.2595  -12.6871   27.0369 H   0  0  0  0  0  0  0  0  0  0  0  0
   -2.3969  -11.7284   27.1799 H   0  0  0  0  0  0  0  0  0  0  0  0
   -4.5857  -12.9394   27.5583 H   0  0  0  0  0  0  0  0  0  0  0  0
   -4.4761  -16.4602   26.6910 H   0  0  0  0  0  0  0  0  0  0  0  0
   -5.5792  -15.1538   27.0494 H   0  0  0  0  0  0  0  0  0  0  0  0
   -4.9182  -17.2804   29.0748 H   0  0  0  0  0  0  0  0  0  0  0  0
   -6.7604  -17.2607   32.1566 H   0  0  0  0  0  0  0  0  0  0  0  0
   -8.6480  -19.2275   33.6469 H   0  0  0  0  0  0  0  0  0  0  0  0
  -11.4332  -21.3985   32.6650 H   0  0  0  0  0  0  0  0  0  0  0  0
   -8.9828  -18.4218   28.0918 H   0  0  0  0  0  0  0  0  0  0  0  0
  -10.8696  -22.2897   27.5183 H   0  0  0  0  0  0  0  0  0  0  0  0
   -9.1995  -22.4206   28.2984 H   0  0  0  0  0  0  0  0  0  0  0  0
   -9.7219  -24.5430   27.9108 H   0  0  0  0  0  0  0  0  0  0  0  0
   -9.8620  -24.2939   29.6360 H   0  0  0  0  0  0  0  0  0  0  0  0
  -11.9650  -24.7487   27.5687 H   0  0  0  0  0  0  0  0  0  0  0  0
  -11.7404  -25.4488   29.1634 H   0  0  0  0  0  0  0  0  0  0  0  0
  -13.6063  -23.9017   28.9629 H   0  0  0  0  0  0  0  0  0  0  0  0
  -12.6942  -22.6011   28.4320 H   0  0  0  0  0  0  0  0  0  0  0  0
  -13.1996  -22.3951   30.9961 H   0  0  0  0  0  0  0  0  0  0  0  0
  -12.0087  -23.7301   31.2376 H   0  0  0  0  0  0  0  0  0  0  0  0
  1  2  1  0
  2  3  2  0
  3  4  1  0
  4  5  1  0
  5  6  1  0
  6  7  1  0
  7  8  1  0
  8  9  2  0
  8 10  1  0
 10 11  2  0
 11 12  1  0
 12 13  2  0
 13 14  1  0
 14 15  1  0
 15 16  2  0
 16 17  1  0
 17 18  2  0
 16 19  1  0
 19 20  1  0
 20 21  1  0
 21 22  1  0
 22 23  1  0
  5 24  2  0
 24  2  1  0
 18 10  1  0
 17 13  1  0
 23 15  1  0
  1 25  1  0
  1 26  1  0
  1 27  1  0
  3 28  1  0
  4 29  1  0
  6 30  1  0
  6 31  1  0
  7 32  1  0
 11 33  1  0
 12 34  1  0
 14 35  1  0
 18 36  1  0
 19 37  1  0
 19 38  1  0
 20 39  1  0
 20 40  1  0
 21 41  1  0
 21 42  1  0
 22 43  1  0
 22 44  1  0
 23 45  1  0
 23 46  1  0
M  END
>  <Energy>  (1141) 
654.48193308998577

>  <compound_id>  (1141) 
47044

>  <target_id>  (1141) 
1

>  <reference_id>  (1141) 
80

>  <inspiration_ids>  (1141) 
[80, 39]

>  <energy_score>  (1141) 
616.1458645155715

>  <distance_score>  (1141) 
14.130197139857064

>  <path>  (1141) 
/opt/xchem-fragalysis-2/maxwin/BulkDock/SCRATCH/511023/C47044-P80/C47044-P80.minimised.mol

>  <scratch_subdir>  (1141) 
/opt/xchem-fragalysis-2/maxwin/BulkDock/SCRATCH/511023/C47044-P80

>  <fragmenstein_runtime>  (1141) 
38.4182813167572

>  <fragmenstein_outcome>  (1141) 
too moved

>  <fragmenstein_mode>  (1141) 
expansion

>  <fragmenstein_error>  (1141) 


$$$$
C47044-P39
     RDKit          3D

 46 49  0  0  0  0  0  0  0  0999 V2000
    6.8618  -11.7633   20.4790 C   0  0  0  0  0  0  0  0  0  0  0  0
    5.4097  -11.8883   20.7496 C   0  0  0  0  0  0  0  0  0  0  0  0
    4.6833  -12.8341   20.1526 C   0  0  0  0  0  0  0  0  0  0  0  0
    3.6921  -13.1657   21.0728 N   0  0  0  0  0  0  0  0  0  0  0  0
    3.5508  -12.4132   22.2564 C   0  0  0  0  0  0  0  0  0  0  0  0
    2.6900  -13.0408   23.7016 C   0  0  0  0  0  0  0  0  0  0  0  0
    1.1201  -13.9313   23.9927 N   0  0  0  0  0  0  0  0  0  0  0  0
    0.2446  -14.2550   25.4978 C   0  0  0  0  0  0  0  0  0  0  0  0
    0.5796  -13.9075   26.6170 O   0  0  0  0  0  0  0  0  0  0  0  0
   -1.1358  -15.2296   25.5924 C   0  0  0  0  0  0  0  0  0  0  0  0
   -2.0539  -15.7502   24.6525 C   0  0  0  0  0  0  0  0  0  0  0  0
   -3.0863  -16.7042   24.9086 C   0  0  0  0  0  0  0  0  0  0  0  0
   -3.1327  -17.2725   26.1739 C   0  0  0  0  0  0  0  0  0  0  0  0
   -3.8713  -18.3264   26.6642 N   0  0  0  0  0  0  0  0  0  0  0  0
   -3.4126  -18.6576   27.9121 C   0  0  0  0  0  0  0  0  0  0  0  0
   -2.5237  -17.6793   28.3153 C   0  0  0  0  0  0  0  0  0  0  0  0
   -2.2818  -16.8388   27.1838 C   0  0  0  0  0  0  0  0  0  0  0  0
   -1.3442  -15.7924   26.8917 C   0  0  0  0  0  0  0  0  0  0  0  0
   -1.8421  -17.6275   29.6443 C   0  0  0  0  0  0  0  0  0  0  0  0
   -0.9980  -18.8701   29.9307 C   0  0  0  0  0  0  0  0  0  0  0  0
   -1.8150  -20.1276   30.2468 C   0  0  0  0  0  0  0  0  0  0  0  0
   -2.5859  -20.7189   29.0616 C   0  0  0  0  0  0  0  0  0  0  0  0
   -3.8018  -19.8957   28.6261 C   0  0  0  0  0  0  0  0  0  0  0  0
    4.4825  -11.4083   22.0102 N   0  0  0  0  0  0  0  0  0  0  0  0
    7.2602  -12.7268   20.1358 H   0  0  0  0  0  0  0  0  0  0  0  0
    7.0749  -11.0917   19.6520 H   0  0  0  0  0  0  0  0  0  0  0  0
    7.3985  -11.5680   21.4063 H   0  0  0  0  0  0  0  0  0  0  0  0
    4.8232  -13.4052   19.2569 H   0  0  0  0  0  0  0  0  0  0  0  0
    3.1387  -14.0012   20.9769 H   0  0  0  0  0  0  0  0  0  0  0  0
    2.3340  -12.1127   24.0979 H   0  0  0  0  0  0  0  0  0  0  0  0
    3.4144  -13.6119   24.2590 H   0  0  0  0  0  0  0  0  0  0  0  0
    0.5698  -14.2622   23.2063 H   0  0  0  0  0  0  0  0  0  0  0  0
   -1.9303  -15.5352   23.5930 H   0  0  0  0  0  0  0  0  0  0  0  0
   -3.7121  -17.0645   24.0981 H   0  0  0  0  0  0  0  0  0  0  0  0
   -4.5301  -18.8654   26.1213 H   0  0  0  0  0  0  0  0  0  0  0  0
   -0.6735  -15.4993   27.6986 H   0  0  0  0  0  0  0  0  0  0  0  0
   -1.1901  -16.7474   29.6891 H   0  0  0  0  0  0  0  0  0  0  0  0
   -2.5936  -17.4921   30.4321 H   0  0  0  0  0  0  0  0  0  0  0  0
   -0.3150  -19.0707   29.0958 H   0  0  0  0  0  0  0  0  0  0  0  0
   -0.3700  -18.6554   30.8047 H   0  0  0  0  0  0  0  0  0  0  0  0
   -1.1160  -20.8947   30.6038 H   0  0  0  0  0  0  0  0  0  0  0  0
   -2.5027  -19.9279   31.0776 H   0  0  0  0  0  0  0  0  0  0  0  0
   -2.9427  -21.7107   29.3653 H   0  0  0  0  0  0  0  0  0  0  0  0
   -1.9049  -20.8792   28.2162 H   0  0  0  0  0  0  0  0  0  0  0  0
   -4.4057  -20.5158   27.9551 H   0  0  0  0  0  0  0  0  0  0  0  0
   -4.4051  -19.6270   29.4980 H   0  0  0  0  0  0  0  0  0  0  0  0
  1  2  1  0
  2  3  2  0
  3  4  1  0
  4  5  1  0
  5  6  1  0
  6  7  1  0
  7  8  1  0
  8  9  2  0
  8 10  1  0
 10 11  2  0
 11 12  1  0
 12 13  2  0
 13 14  1  0
 14 15  1  0
 15 16  2  0
 16 17  1  0
 17 18  2  0
 16 19  1  0
 19 20  1  0
 20 21  1  0
 21 22  1  0
 22 23  1  0
  5 24  2  0
 24  2  1  0
 18 10  1  0
 17 13  1  0
 23 15  1  0
  1 25  1  0
  1 26  1  0
  1 27  1  0
  3 28  1  0
  4 29  1  0
  6 30  1  0
  6 31  1  0
  7 32  1  0
 11 33  1  0
 12 34  1  0
 14 35  1  0
 18 36  1  0
 19 37  1  0
 19 38  1  0
 20 39  1  0
 20 40  1  0
 21 41  1  0
 21 42  1  0
 22 43  1  0
 22 44  1  0
 23 45  1  0
 23 46  1  0
M  END
>  <Energy>  (1142) 
217.12153127167062

>  <compound_id>  (1142) 
47044

>  <target_id>  (1142) 
1

>  <reference_id>  (1142) 
39

>  <inspiration_ids>  (1142) 
[80, 39]

>  <energy_score>  (1142) 
178.78546269727656

>  <distance_score>  (1142) 
13.882692318384121

>  <path>  (1142) 
/opt/xchem-fragalysis-2/maxwin/BulkDock/SCRATCH/511023/C47044-P39/C47044-P39.minimised.mol

>  <scratch_subdir>  (1142) 
/opt/xchem-fragalysis-2/maxwin/BulkDock/SCRATCH/511023/C47044-P39

>  <fragmenstein_runtime>  (1142) 
51.062676191329956

>  <fragmenstein_outcome>  (1142) 
too moved

>  <fragmenstein_mode>  (1142) 
expansion

>  <fragmenstein_error>  (1142) 


$$$$
C47047-P80
     RDKit          3D

 52 55  0  0  0  0  0  0  0  0999 V2000
   -4.2746   -7.1980   25.5125 C   0  0  0  0  0  0  0  0  0  0  0  0
   -4.0688   -8.7019   25.4035 C   0  0  0  0  0  0  0  0  0  0  0  0
   -3.8480   -9.1285   23.9861 C   0  0  0  0  0  0  0  0  0  0  0  0
   -3.0536   -8.5167   23.1181 N   0  0  0  0  0  0  0  0  0  0  0  0
   -3.2722   -9.1068   21.9055 C   0  0  0  0  0  0  0  0  0  0  0  0
   -4.1563  -10.1546   22.0530 C   0  0  0  0  0  0  0  0  0  0  0  0
   -4.4356  -10.2504   23.4130 N   0  0  0  0  0  0  0  0  0  0  0  0
   -5.2657  -11.3319   24.0587 C   0  0  0  0  0  0  0  0  0  0  0  0
   -4.6107  -12.1952   25.2228 C   0  0  0  0  0  0  0  0  0  0  0  0
   -3.7322  -11.6713   25.8518 O   0  0  0  0  0  0  0  0  0  0  0  0
   -5.2058  -13.5440   25.3424 N   0  0  0  0  0  0  0  0  0  0  0  0
   -4.8328  -14.7109   26.2170 C   0  0  0  0  0  0  0  0  0  0  0  0
   -5.9623  -15.5778   26.8275 C   0  0  0  0  0  0  0  0  0  0  0  0
   -7.1687  -14.9561   27.1387 C   0  0  0  0  0  0  0  0  0  0  0  0
   -8.2274  -15.6688   27.6843 C   0  0  0  0  0  0  0  0  0  0  0  0
   -8.0585  -17.0319   27.9319 C   0  0  0  0  0  0  0  0  0  0  0  0
   -9.0397  -17.8986   28.2612 N   0  0  0  0  0  0  0  0  0  0  0  0
   -8.6313  -19.2832   28.4193 C   0  0  0  0  0  0  0  0  0  0  0  0
   -7.1638  -19.1760   28.1315 C   0  0  0  0  0  0  0  0  0  0  0  0
   -6.8788  -17.7431   27.7683 C   0  0  0  0  0  0  0  0  0  0  0  0
   -5.8019  -16.9765   27.1898 C   0  0  0  0  0  0  0  0  0  0  0  0
   -6.2417  -20.3982   27.8649 C   0  0  0  0  0  0  0  0  0  0  0  0
   -7.0144  -22.1394   27.7327 C   0  0  0  0  0  0  0  0  0  0  0  0
   -8.5833  -22.9680   28.0825 C   0  0  0  0  0  0  0  0  0  0  0  0
   -9.8796  -22.3765   28.5096 C   0  0  0  0  0  0  0  0  0  0  0  0
   -9.9247  -20.8796   28.4438 C   0  0  0  0  0  0  0  0  0  0  0  0
   -4.4542   -6.9150   26.5545 H   0  0  0  0  0  0  0  0  0  0  0  0
   -3.3945   -6.6488   25.1609 H   0  0  0  0  0  0  0  0  0  0  0  0
   -5.1348   -6.8729   24.9174 H   0  0  0  0  0  0  0  0  0  0  0  0
   -4.9465   -9.1994   25.8284 H   0  0  0  0  0  0  0  0  0  0  0  0
   -3.2034   -8.9899   26.0080 H   0  0  0  0  0  0  0  0  0  0  0  0
   -2.7811   -8.7595   21.0043 H   0  0  0  0  0  0  0  0  0  0  0  0
   -4.5610  -10.8552   21.3360 H   0  0  0  0  0  0  0  0  0  0  0  0
   -5.5675  -11.9973   23.2432 H   0  0  0  0  0  0  0  0  0  0  0  0
   -6.1500  -10.8226   24.4553 H   0  0  0  0  0  0  0  0  0  0  0  0
   -5.8718  -13.6810   24.5924 H   0  0  0  0  0  0  0  0  0  0  0  0
   -4.2103  -14.3196   27.0289 H   0  0  0  0  0  0  0  0  0  0  0  0
   -4.2077  -15.3523   25.5861 H   0  0  0  0  0  0  0  0  0  0  0  0
   -7.3044  -13.8934   26.9489 H   0  0  0  0  0  0  0  0  0  0  0  0
   -9.1771  -15.1749   27.8694 H   0  0  0  0  0  0  0  0  0  0  0  0
  -10.0062  -17.6280   28.3483 H   0  0  0  0  0  0  0  0  0  0  0  0
   -4.8552  -17.4745   26.9927 H   0  0  0  0  0  0  0  0  0  0  0  0
   -5.5850  -20.1266   27.0128 H   0  0  0  0  0  0  0  0  0  0  0  0
   -5.3601  -20.3696   28.5262 H   0  0  0  0  0  0  0  0  0  0  0  0
   -6.8679  -22.5717   26.7356 H   0  0  0  0  0  0  0  0  0  0  0  0
   -6.1850  -22.7634   28.0772 H   0  0  0  0  0  0  0  0  0  0  0  0
   -8.8470  -23.4573   27.1415 H   0  0  0  0  0  0  0  0  0  0  0  0
   -8.6258  -23.9210   28.6390 H   0  0  0  0  0  0  0  0  0  0  0  0
  -10.6414  -22.7806   27.8038 H   0  0  0  0  0  0  0  0  0  0  0  0
  -10.4229  -22.8119   29.3578 H   0  0  0  0  0  0  0  0  0  0  0  0
  -10.5106  -20.9671   27.5122 H   0  0  0  0  0  0  0  0  0  0  0  0
  -10.5210  -20.6816   29.3747 H   0  0  0  0  0  0  0  0  0  0  0  0
  1  2  1  0
  2  3  1  0
  3  4  2  0
  4  5  1  0
  5  6  2  0
  6  7  1  0
  7  8  1  0
  8  9  1  0
  9 10  2  0
  9 11  1  0
 11 12  1  0
 12 13  1  0
 13 14  2  0
 14 15  1  0
 15 16  2  0
 16 17  1  0
 17 18  1  0
 18 19  2  0
 19 20  1  0
 20 21  2  0
 19 22  1  0
 22 23  1  0
 23 24  1  0
 24 25  1  0
 25 26  1  0
  7  3  1  0
 21 13  1  0
 20 16  1  0
 26 18  1  0
  1 27  1  0
  1 28  1  0
  1 29  1  0
  2 30  1  0
  2 31  1  0
  5 32  1  0
  6 33  1  0
  8 34  1  0
  8 35  1  0
 11 36  1  0
 12 37  1  0
 12 38  1  0
 14 39  1  0
 15 40  1  0
 17 41  1  0
 21 42  1  0
 22 43  1  0
 22 44  1  0
 23 45  1  0
 23 46  1  0
 24 47  1  0
 24 48  1  0
 25 49  1  0
 25 50  1  0
 26 51  1  0
 26 52  1  0
M  END
>  <Energy>  (1143) 
271.97089179803072

>  <compound_id>  (1143) 
47047

>  <target_id>  (1143) 
1

>  <reference_id>  (1143) 
80

>  <inspiration_ids>  (1143) 
[80, 39]

>  <energy_score>  (1143) 
228.495636429858

>  <distance_score>  (1143) 
13.817407883876722

>  <path>  (1143) 
/opt/xchem-fragalysis-2/maxwin/BulkDock/SCRATCH/511023/C47047-P80/C47047-P80.minimised.mol

>  <scratch_subdir>  (1143) 
/opt/xchem-fragalysis-2/maxwin/BulkDock/SCRATCH/511023/C47047-P80

>  <fragmenstein_runtime>  (1143) 
34.53843450546265

>  <fragmenstein_outcome>  (1143) 
too moved

>  <fragmenstein_mode>  (1143) 
expansion

>  <fragmenstein_error>  (1143) 


$$$$
C47047-P39
     RDKit          3D

 52 55  0  0  0  0  0  0  0  0999 V2000
   -6.1870  -12.2877   21.7002 C   0  0  0  0  0  0  0  0  0  0  0  0
   -6.0930  -13.3412   22.7934 C   0  0  0  0  0  0  0  0  0  0  0  0
   -5.2994  -12.8833   23.9783 C   0  0  0  0  0  0  0  0  0  0  0  0
   -4.7136  -11.7003   24.1113 N   0  0  0  0  0  0  0  0  0  0  0  0
   -4.1638  -11.6999   25.3607 C   0  0  0  0  0  0  0  0  0  0  0  0
   -4.3378  -12.9241   25.9597 C   0  0  0  0  0  0  0  0  0  0  0  0
   -5.1012  -13.6787   25.1067 N   0  0  0  0  0  0  0  0  0  0  0  0
   -5.5731  -15.0874   25.3253 C   0  0  0  0  0  0  0  0  0  0  0  0
   -5.9649  -15.5511   26.7849 C   0  0  0  0  0  0  0  0  0  0  0  0
   -6.0369  -14.7135   27.6407 O   0  0  0  0  0  0  0  0  0  0  0  0
   -6.1130  -17.0184   26.8629 N   0  0  0  0  0  0  0  0  0  0  0  0
   -6.2963  -17.9127   28.0293 C   0  0  0  0  0  0  0  0  0  0  0  0
   -7.3408  -18.9635   28.0208 C   0  0  0  0  0  0  0  0  0  0  0  0
   -8.6239  -18.9323   28.2329 C   0  0  0  0  0  0  0  0  0  0  0  0
   -9.7957  -20.4580   28.2384 C   0  0  0  0  0  0  0  0  0  0  0  0
   -9.8603  -21.7209   27.9039 C   0  0  0  0  0  0  0  0  0  0  0  0
  -10.9228  -22.5465   27.8227 N   0  0  0  0  0  0  0  0  0  0  0  0
  -10.4334  -23.6876   27.2859 C   0  0  0  0  0  0  0  0  0  0  0  0
   -9.1561  -23.6149   27.9034 C   0  0  0  0  0  0  0  0  0  0  0  0
   -8.4832  -21.9901   27.6238 C   0  0  0  0  0  0  0  0  0  0  0  0
   -7.4303  -20.3717   27.7727 C   0  0  0  0  0  0  0  0  0  0  0  0
   -9.1293  -24.9294   28.8724 C   0  0  0  0  0  0  0  0  0  0  0  0
  -10.4473  -25.1959   29.6527 C   0  0  0  0  0  0  0  0  0  0  0  0
  -11.5380  -25.9670   28.9031 C   0  0  0  0  0  0  0  0  0  0  0  0
  -11.3928  -26.0406   27.3901 C   0  0  0  0  0  0  0  0  0  0  0  0
  -11.3669  -24.6886   26.7072 C   0  0  0  0  0  0  0  0  0  0  0  0
   -5.1962  -12.0149   21.3219 H   0  0  0  0  0  0  0  0  0  0  0  0
   -6.6699  -11.3762   22.0689 H   0  0  0  0  0  0  0  0  0  0  0  0
   -6.7769  -12.6667   20.8597 H   0  0  0  0  0  0  0  0  0  0  0  0
   -5.6341  -14.2466   22.3799 H   0  0  0  0  0  0  0  0  0  0  0  0
   -7.1079  -13.6003   23.1163 H   0  0  0  0  0  0  0  0  0  0  0  0
   -3.6722  -10.8269   25.7666 H   0  0  0  0  0  0  0  0  0  0  0  0
   -4.0637  -13.2982   26.9351 H   0  0  0  0  0  0  0  0  0  0  0  0
   -6.4562  -15.2233   24.6945 H   0  0  0  0  0  0  0  0  0  0  0  0
   -4.7510  -15.7116   24.9584 H   0  0  0  0  0  0  0  0  0  0  0  0
   -5.9066  -17.4215   25.9577 H   0  0  0  0  0  0  0  0  0  0  0  0
   -6.4586  -17.2632   28.8978 H   0  0  0  0  0  0  0  0  0  0  0  0
   -5.3196  -18.3836   28.1888 H   0  0  0  0  0  0  0  0  0  0  0  0
   -9.0708  -17.9080   28.2940 H   0  0  0  0  0  0  0  0  0  0  0  0
  -10.5199  -20.4562   29.1441 H   0  0  0  0  0  0  0  0  0  0  0  0
  -11.8882  -22.2497   27.8253 H   0  0  0  0  0  0  0  0  0  0  0  0
   -6.2574  -20.3305   27.3753 H   0  0  0  0  0  0  0  0  0  0  0  0
   -8.9299  -25.8168   28.2662 H   0  0  0  0  0  0  0  0  0  0  0  0
   -8.3954  -24.9743   29.6501 H   0  0  0  0  0  0  0  0  0  0  0  0
  -10.1985  -25.7850   30.5466 H   0  0  0  0  0  0  0  0  0  0  0  0
  -10.8704  -24.2632   30.0422 H   0  0  0  0  0  0  0  0  0  0  0  0
  -11.5739  -26.9918   29.2922 H   0  0  0  0  0  0  0  0  0  0  0  0
  -12.5076  -25.5201   29.1508 H   0  0  0  0  0  0  0  0  0  0  0  0
  -10.5029  -26.6141   27.1173 H   0  0  0  0  0  0  0  0  0  0  0  0
  -12.2397  -26.6097   26.9902 H   0  0  0  0  0  0  0  0  0  0  0  0
  -12.3876  -24.2824   26.7113 H   0  0  0  0  0  0  0  0  0  0  0  0
  -11.1147  -24.8279   25.6491 H   0  0  0  0  0  0  0  0  0  0  0  0
  1  2  1  0
  2  3  1  0
  3  4  2  0
  4  5  1  0
  5  6  2  0
  6  7  1  0
  7  8  1  0
  8  9  1  0
  9 10  2  0
  9 11  1  0
 11 12  1  0
 12 13  1  0
 13 14  2  0
 14 15  1  0
 15 16  2  0
 16 17  1  0
 17 18  1  0
 18 19  2  0
 19 20  1  0
 20 21  2  0
 19 22  1  0
 22 23  1  0
 23 24  1  0
 24 25  1  0
 25 26  1  0
  7  3  1  0
 21 13  1  0
 20 16  1  0
 26 18  1  0
  1 27  1  0
  1 28  1  0
  1 29  1  0
  2 30  1  0
  2 31  1  0
  5 32  1  0
  6 33  1  0
  8 34  1  0
  8 35  1  0
 11 36  1  0
 12 37  1  0
 12 38  1  0
 14 39  1  0
 15 40  1  0
 17 41  1  0
 21 42  1  0
 22 43  1  0
 22 44  1  0
 23 45  1  0
 23 46  1  0
 24 47  1  0
 24 48  1  0
 25 49  1  0
 25 50  1  0
 26 51  1  0
 26 52  1  0
M  END
>  <Energy>  (1144) 
439.23872562914966

>  <compound_id>  (1144) 
47047

>  <target_id>  (1144) 
1

>  <reference_id>  (1144) 
39

>  <inspiration_ids>  (1144) 
[80, 39]

>  <energy_score>  (1144) 
395.7634702609673

>  <distance_score>  (1144) 
13.766077222119714

>  <path>  (1144) 
/opt/xchem-fragalysis-2/maxwin/BulkDock/SCRATCH/511023/C47047-P39/C47047-P39.minimised.mol

>  <scratch_subdir>  (1144) 
/opt/xchem-fragalysis-2/maxwin/BulkDock/SCRATCH/511023/C47047-P39

>  <fragmenstein_runtime>  (1144) 
50.59089684486389

>  <fragmenstein_outcome>  (1144) 
too moved

>  <fragmenstein_mode>  (1144) 
expansion

>  <fragmenstein_error>  (1144) 


$$$$
C47048-P80
     RDKit          3D

 49 52  0  0  0  0  0  0  0  0999 V2000
    8.0398   -4.2159   22.5799 C   0  0  0  0  0  0  0  0  0  0  0  0
    6.9834   -5.0926   23.4109 C   0  0  0  0  0  0  0  0  0  0  0  0
    6.1191   -6.8343   24.0178 C   0  0  0  0  0  0  0  0  0  0  0  0
    7.2195   -7.4474   23.8904 N   0  0  0  0  0  0  0  0  0  0  0  0
    6.4999   -7.0538   22.8486 C   0  0  0  0  0  0  0  0  0  0  0  0
    5.0677   -7.3347   23.2397 C   0  0  0  0  0  0  0  0  0  0  0  0
    5.1289   -8.3050   24.2843 N   0  0  0  0  0  0  0  0  0  0  0  0
    4.1168   -9.8495   23.3430 C   0  0  0  0  0  0  0  0  0  0  0  0
    2.8711  -11.6375   23.3175 C   0  0  0  0  0  0  0  0  0  0  0  0
    3.5282  -12.5708   23.5050 O   0  0  0  0  0  0  0  0  0  0  0  0
    1.0682  -12.0205   23.1443 N   0  0  0  0  0  0  0  0  0  0  0  0
   -0.0229  -13.8200   23.3615 C   0  0  0  0  0  0  0  0  0  0  0  0
   -1.5298  -15.0349   23.6415 C   0  0  0  0  0  0  0  0  0  0  0  0
   -2.4108  -15.1960   24.8306 C   0  0  0  0  0  0  0  0  0  0  0  0
   -3.4834  -16.1154   25.0004 C   0  0  0  0  0  0  0  0  0  0  0  0
   -3.6996  -17.0060   23.9622 C   0  0  0  0  0  0  0  0  0  0  0  0
   -4.5005  -18.1290   23.9039 N   0  0  0  0  0  0  0  0  0  0  0  0
   -4.2580  -18.7867   22.7331 C   0  0  0  0  0  0  0  0  0  0  0  0
   -3.4424  -17.9960   21.9520 C   0  0  0  0  0  0  0  0  0  0  0  0
   -3.0295  -16.8878   22.7435 C   0  0  0  0  0  0  0  0  0  0  0  0
   -2.0334  -15.8610   22.5493 C   0  0  0  0  0  0  0  0  0  0  0  0
   -2.9635  -18.4052   20.5972 C   0  0  0  0  0  0  0  0  0  0  0  0
   -3.7230  -19.6398   20.0852 C   0  0  0  0  0  0  0  0  0  0  0  0
   -3.9137  -20.6865   21.1951 C   0  0  0  0  0  0  0  0  0  0  0  0
   -4.7504  -20.1341   22.3662 C   0  0  0  0  0  0  0  0  0  0  0  0
    7.5945   -3.2128   22.4726 H   0  0  0  0  0  0  0  0  0  0  0  0
    8.3194   -4.4976   21.5619 H   0  0  0  0  0  0  0  0  0  0  0  0
    8.9626   -4.0312   23.1570 H   0  0  0  0  0  0  0  0  0  0  0  0
    7.9701   -5.5385   23.6310 H   0  0  0  0  0  0  0  0  0  0  0  0
    6.8109   -4.2106   24.0117 H   0  0  0  0  0  0  0  0  0  0  0  0
    6.7738   -6.9654   21.8327 H   0  0  0  0  0  0  0  0  0  0  0  0
    4.4219   -7.8371   22.6374 H   0  0  0  0  0  0  0  0  0  0  0  0
    3.1837   -8.9762   23.0683 H   0  0  0  0  0  0  0  0  0  0  0  0
    5.0234  -10.3116   22.9021 H   0  0  0  0  0  0  0  0  0  0  0  0
    0.5902  -11.1590   22.8980 H   0  0  0  0  0  0  0  0  0  0  0  0
    0.0747  -14.3036   22.4108 H   0  0  0  0  0  0  0  0  0  0  0  0
    0.5911  -14.2278   24.1404 H   0  0  0  0  0  0  0  0  0  0  0  0
   -2.2753  -14.5132   25.6673 H   0  0  0  0  0  0  0  0  0  0  0  0
   -4.0270  -16.1673   25.9372 H   0  0  0  0  0  0  0  0  0  0  0  0
   -5.0508  -18.4752   24.6754 H   0  0  0  0  0  0  0  0  0  0  0  0
   -1.5264  -15.8977   21.5963 H   0  0  0  0  0  0  0  0  0  0  0  0
   -3.0779  -17.5798   19.8857 H   0  0  0  0  0  0  0  0  0  0  0  0
   -1.8937  -18.6405   20.6591 H   0  0  0  0  0  0  0  0  0  0  0  0
   -4.7080  -19.3357   19.7083 H   0  0  0  0  0  0  0  0  0  0  0  0
   -3.1792  -20.0795   19.2416 H   0  0  0  0  0  0  0  0  0  0  0  0
   -4.3854  -21.5812   20.7819 H   0  0  0  0  0  0  0  0  0  0  0  0
   -2.9272  -20.9958   21.5654 H   0  0  0  0  0  0  0  0  0  0  0  0
   -4.6883  -20.8252   23.2123 H   0  0  0  0  0  0  0  0  0  0  0  0
   -5.7974  -20.0314   22.0775 H   0  0  0  0  0  0  0  0  0  0  0  0
  1  2  1  0
  2  3  1  0
  3  4  2  0
  4  5  1  0
  5  6  2  0
  6  7  1  0
  7  8  1  0
  8  9  1  0
  9 10  2  0
  9 11  1  0
 11 12  1  0
 12 13  1  0
 13 14  2  0
 14 15  1  0
 15 16  2  0
 16 17  1  0
 17 18  1  0
 18 19  2  0
 19 20  1  0
 20 21  2  0
 19 22  1  0
 22 23  1  0
 23 24  1  0
 24 25  1  0
  7  3  1  0
 21 13  1  0
 20 16  1  0
 25 18  1  0
  1 26  1  0
  1 27  1  0
  1 28  1  0
  2 29  1  0
  2 30  1  0
  5 31  1  0
  6 32  1  0
  8 33  1  0
  8 34  1  0
 11 35  1  0
 12 36  1  0
 12 37  1  0
 14 38  1  0
 15 39  1  0
 17 40  1  0
 21 41  1  0
 22 42  1  0
 22 43  1  0
 23 44  1  0
 23 45  1  0
 24 46  1  0
 24 47  1  0
 25 48  1  0
 25 49  1  0
M  END
>  <Energy>  (1145) 
1275.517635632556

>  <compound_id>  (1145) 
47048

>  <target_id>  (1145) 
1

>  <reference_id>  (1145) 
80

>  <inspiration_ids>  (1145) 
[80, 39]

>  <energy_score>  (1145) 
1215.059407579539

>  <distance_score>  (1145) 
13.695261184328375

>  <path>  (1145) 
/opt/xchem-fragalysis-2/maxwin/BulkDock/SCRATCH/511023/C47048-P80/C47048-P80.minimised.mol

>  <scratch_subdir>  (1145) 
/opt/xchem-fragalysis-2/maxwin/BulkDock/SCRATCH/511023/C47048-P80

>  <fragmenstein_runtime>  (1145) 
32.195022106170654

>  <fragmenstein_outcome>  (1145) 
too moved

>  <fragmenstein_mode>  (1145) 
expansion

>  <fragmenstein_error>  (1145) 


$$$$
C47048-P39
     RDKit          3D

 49 52  0  0  0  0  0  0  0  0999 V2000
   -7.5003  -12.0690   22.6216 C   0  0  0  0  0  0  0  0  0  0  0  0
   -6.1307  -12.7175   22.7419 C   0  0  0  0  0  0  0  0  0  0  0  0
   -5.4211  -12.2875   23.9863 C   0  0  0  0  0  0  0  0  0  0  0  0
   -4.5799  -11.2634   24.0472 N   0  0  0  0  0  0  0  0  0  0  0  0
   -4.2074  -11.1772   25.3575 C   0  0  0  0  0  0  0  0  0  0  0  0
   -4.7932  -12.1781   26.0971 C   0  0  0  0  0  0  0  0  0  0  0  0
   -5.6006  -12.8909   25.2372 N   0  0  0  0  0  0  0  0  0  0  0  0
   -6.7052  -13.8509   25.6356 C   0  0  0  0  0  0  0  0  0  0  0  0
   -6.4066  -15.0166   26.6586 C   0  0  0  0  0  0  0  0  0  0  0  0
   -5.2593  -15.1761   26.9782 O   0  0  0  0  0  0  0  0  0  0  0  0
   -7.6374  -15.7613   27.0594 N   0  0  0  0  0  0  0  0  0  0  0  0
   -7.8314  -16.8592   28.0474 C   0  0  0  0  0  0  0  0  0  0  0  0
   -9.1217  -17.7213   28.1524 C   0  0  0  0  0  0  0  0  0  0  0  0
  -10.5271  -17.1825   28.5105 C   0  0  0  0  0  0  0  0  0  0  0  0
  -11.9479  -18.1933   28.8289 C   0  0  0  0  0  0  0  0  0  0  0  0
  -11.8583  -20.1253   29.0047 C   0  0  0  0  0  0  0  0  0  0  0  0
  -12.3688  -21.2970   29.5400 N   0  0  0  0  0  0  0  0  0  0  0  0
  -11.8085  -22.4250   29.0407 C   0  0  0  0  0  0  0  0  0  0  0  0
  -10.5739  -22.1982   28.4862 C   0  0  0  0  0  0  0  0  0  0  0  0
  -10.2750  -20.7594   28.6277 C   0  0  0  0  0  0  0  0  0  0  0  0
   -8.9199  -19.4540   28.2678 C   0  0  0  0  0  0  0  0  0  0  0  0
   -9.8982  -23.4513   27.9832 C   0  0  0  0  0  0  0  0  0  0  0  0
  -10.9053  -24.3012   27.1845 C   0  0  0  0  0  0  0  0  0  0  0  0
  -12.1561  -24.6743   28.0053 C   0  0  0  0  0  0  0  0  0  0  0  0
  -12.4340  -23.7741   29.2169 C   0  0  0  0  0  0  0  0  0  0  0  0
   -7.9857  -12.3795   21.6910 H   0  0  0  0  0  0  0  0  0  0  0  0
   -8.1534  -12.3505   23.4540 H   0  0  0  0  0  0  0  0  0  0  0  0
   -7.4203  -10.9765   22.6147 H   0  0  0  0  0  0  0  0  0  0  0  0
   -6.2201  -13.8082   22.7041 H   0  0  0  0  0  0  0  0  0  0  0  0
   -5.5270  -12.4281   21.8735 H   0  0  0  0  0  0  0  0  0  0  0  0
   -3.5533  -10.3953   25.7157 H   0  0  0  0  0  0  0  0  0  0  0  0
   -4.7493  -12.4128   27.1522 H   0  0  0  0  0  0  0  0  0  0  0  0
   -7.0596  -14.3143   24.7116 H   0  0  0  0  0  0  0  0  0  0  0  0
   -7.4874  -13.2069   26.0525 H   0  0  0  0  0  0  0  0  0  0  0  0
   -8.4263  -15.4081   26.5331 H   0  0  0  0  0  0  0  0  0  0  0  0
   -7.6549  -16.4080   29.0299 H   0  0  0  0  0  0  0  0  0  0  0  0
   -6.9876  -17.5372   27.8776 H   0  0  0  0  0  0  0  0  0  0  0  0
  -10.6807  -16.1106   28.6537 H   0  0  0  0  0  0  0  0  0  0  0  0
  -12.5105  -17.5134   29.4370 H   0  0  0  0  0  0  0  0  0  0  0  0
  -13.1565  -21.4348   30.1478 H   0  0  0  0  0  0  0  0  0  0  0  0
   -7.8004  -19.6451   28.2158 H   0  0  0  0  0  0  0  0  0  0  0  0
   -9.5945  -24.1061   28.8071 H   0  0  0  0  0  0  0  0  0  0  0  0
   -8.9824  -23.2238   27.4475 H   0  0  0  0  0  0  0  0  0  0  0  0
  -11.2298  -23.7611   26.2873 H   0  0  0  0  0  0  0  0  0  0  0  0
  -10.4344  -25.2261   26.8440 H   0  0  0  0  0  0  0  0  0  0  0  0
  -13.0220  -24.6655   27.3323 H   0  0  0  0  0  0  0  0  0  0  0  0
  -12.0703  -25.7110   28.3551 H   0  0  0  0  0  0  0  0  0  0  0  0
  -13.5129  -23.7023   29.3829 H   0  0  0  0  0  0  0  0  0  0  0  0
  -12.0064  -24.2359   30.1162 H   0  0  0  0  0  0  0  0  0  0  0  0
  1  2  1  0
  2  3  1  0
  3  4  2  0
  4  5  1  0
  5  6  2  0
  6  7  1  0
  7  8  1  0
  8  9  1  0
  9 10  2  0
  9 11  1  0
 11 12  1  0
 12 13  1  0
 13 14  2  0
 14 15  1  0
 15 16  2  0
 16 17  1  0
 17 18  1  0
 18 19  2  0
 19 20  1  0
 20 21  2  0
 19 22  1  0
 22 23  1  0
 23 24  1  0
 24 25  1  0
  7  3  1  0
 21 13  1  0
 20 16  1  0
 25 18  1  0
  1 26  1  0
  1 27  1  0
  1 28  1  0
  2 29  1  0
  2 30  1  0
  5 31  1  0
  6 32  1  0
  8 33  1  0
  8 34  1  0
 11 35  1  0
 12 36  1  0
 12 37  1  0
 14 38  1  0
 15 39  1  0
 17 40  1  0
 21 41  1  0
 22 42  1  0
 22 43  1  0
 23 44  1  0
 23 45  1  0
 24 46  1  0
 24 47  1  0
 25 48  1  0
 25 49  1  0
M  END
>  <Energy>  (1146) 
346.75511256410431

>  <compound_id>  (1146) 
47048

>  <target_id>  (1146) 
1

>  <reference_id>  (1146) 
39

>  <inspiration_ids>  (1146) 
[80, 39]

>  <energy_score>  (1146) 
286.296884511086

>  <distance_score>  (1146) 
13.976932261511362

>  <path>  (1146) 
/opt/xchem-fragalysis-2/maxwin/BulkDock/SCRATCH/511023/C47048-P39/C47048-P39.minimised.mol

>  <scratch_subdir>  (1146) 
/opt/xchem-fragalysis-2/maxwin/BulkDock/SCRATCH/511023/C47048-P39

>  <fragmenstein_runtime>  (1146) 
36.19829726219177

>  <fragmenstein_outcome>  (1146) 
too moved

>  <fragmenstein_mode>  (1146) 
expansion

>  <fragmenstein_error>  (1146) 


$$$$
C47049-P80
     RDKit          3D

 42 45  0  0  0  0  0  0  0  0999 V2000
   -1.4461  -17.5539   19.0730 O   0  0  0  0  0  0  0  0  0  0  0  0
   -0.9776  -18.4045   19.8197 C   0  0  0  0  0  0  0  0  0  0  0  0
    0.3309  -18.8014   19.7629 O   0  0  0  0  0  0  0  0  0  0  0  0
    1.1235  -18.4449   18.5602 C   0  0  0  0  0  0  0  0  0  0  0  0
    1.6889  -17.0028   18.4932 C   0  0  0  0  0  0  0  0  0  0  0  0
    2.7719  -16.7303   17.5336 N   0  0  0  0  0  0  0  0  0  0  0  0
    2.6351  -16.2861   16.2451 C   0  0  0  0  0  0  0  0  0  0  0  0
    3.9171  -16.0359   15.7930 C   0  0  0  0  0  0  0  0  0  0  0  0
    4.8401  -16.3279   16.7563 N   0  0  0  0  0  0  0  0  0  0  0  0
    4.1243  -16.7576   17.7719 C   0  0  0  0  0  0  0  0  0  0  0  0
   -1.8623  -19.1481   20.8277 C   0  0  0  0  0  0  0  0  0  0  0  0
   -3.2563  -18.9232   20.7724 C   0  0  0  0  0  0  0  0  0  0  0  0
   -4.1863  -19.6228   21.5685 C   0  0  0  0  0  0  0  0  0  0  0  0
   -3.6818  -20.5807   22.4482 C   0  0  0  0  0  0  0  0  0  0  0  0
   -4.3434  -21.4750   23.2597 N   0  0  0  0  0  0  0  0  0  0  0  0
   -3.4469  -22.1922   23.9928 C   0  0  0  0  0  0  0  0  0  0  0  0
   -2.1787  -21.8165   23.6001 C   0  0  0  0  0  0  0  0  0  0  0  0
   -2.3114  -20.8106   22.5951 C   0  0  0  0  0  0  0  0  0  0  0  0
   -1.3963  -20.0821   21.7745 C   0  0  0  0  0  0  0  0  0  0  0  0
   -0.9482  -22.4260   24.1843 C   0  0  0  0  0  0  0  0  0  0  0  0
   -1.2761  -23.7318   24.9344 C   0  0  0  0  0  0  0  0  0  0  0  0
   -2.5364  -23.5987   25.8098 C   0  0  0  0  0  0  0  0  0  0  0  0
   -3.7853  -23.2505   24.9778 C   0  0  0  0  0  0  0  0  0  0  0  0
    1.9575  -19.1557   18.5519 H   0  0  0  0  0  0  0  0  0  0  0  0
    0.5208  -18.6625   17.6702 H   0  0  0  0  0  0  0  0  0  0  0  0
    0.8754  -16.3142   18.2423 H   0  0  0  0  0  0  0  0  0  0  0  0
    2.0619  -16.7071   19.4742 H   0  0  0  0  0  0  0  0  0  0  0  0
    1.6715  -16.1291   15.7800 H   0  0  0  0  0  0  0  0  0  0  0  0
    4.2065  -15.6312   14.8325 H   0  0  0  0  0  0  0  0  0  0  0  0
    4.5437  -17.1223   18.6915 H   0  0  0  0  0  0  0  0  0  0  0  0
   -3.6457  -18.2076   20.0469 H   0  0  0  0  0  0  0  0  0  0  0  0
   -5.2520  -19.4520   21.4571 H   0  0  0  0  0  0  0  0  0  0  0  0
   -5.3419  -21.6003   23.2638 H   0  0  0  0  0  0  0  0  0  0  0  0
   -0.3315  -20.2803   21.8605 H   0  0  0  0  0  0  0  0  0  0  0  0
   -0.2087  -22.6290   23.4018 H   0  0  0  0  0  0  0  0  0  0  0  0
   -0.5004  -21.7093   24.8834 H   0  0  0  0  0  0  0  0  0  0  0  0
   -0.4195  -24.0206   25.5539 H   0  0  0  0  0  0  0  0  0  0  0  0
   -1.4330  -24.5399   24.2083 H   0  0  0  0  0  0  0  0  0  0  0  0
   -2.3666  -22.8139   26.5585 H   0  0  0  0  0  0  0  0  0  0  0  0
   -2.7078  -24.5300   26.3600 H   0  0  0  0  0  0  0  0  0  0  0  0
   -4.5930  -22.9275   25.6420 H   0  0  0  0  0  0  0  0  0  0  0  0
   -4.1260  -24.1389   24.4348 H   0  0  0  0  0  0  0  0  0  0  0  0
  1  2  2  0
  2  3  1  0
  3  4  1  0
  4  5  1  0
  5  6  1  0
  6  7  1  0
  7  8  2  0
  8  9  1  0
  9 10  2  0
  2 11  1  0
 11 12  2  0
 12 13  1  0
 13 14  2  0
 14 15  1  0
 15 16  1  0
 16 17  2  0
 17 18  1  0
 18 19  2  0
 17 20  1  0
 20 21  1  0
 21 22  1  0
 22 23  1  0
 10  6  1  0
 19 11  1  0
 18 14  1  0
 23 16  1  0
  4 24  1  0
  4 25  1  0
  5 26  1  0
  5 27  1  0
  7 28  1  0
  8 29  1  0
 10 30  1  0
 12 31  1  0
 13 32  1  0
 15 33  1  0
 19 34  1  0
 20 35  1  0
 20 36  1  0
 21 37  1  0
 21 38  1  0
 22 39  1  0
 22 40  1  0
 23 41  1  0
 23 42  1  0
M  END
>  <Energy>  (1147) 
39.782372753081553

>  <compound_id>  (1147) 
47049

>  <target_id>  (1147) 
1

>  <reference_id>  (1147) 
80

>  <inspiration_ids>  (1147) 
[80, 39]

>  <energy_score>  (1147) 
-31.505521277081016

>  <distance_score>  (1147) 
14.905368661160088

>  <path>  (1147) 
/opt/xchem-fragalysis-2/maxwin/BulkDock/SCRATCH/511023/C47049-P80/C47049-P80.minimised.mol

>  <scratch_subdir>  (1147) 
/opt/xchem-fragalysis-2/maxwin/BulkDock/SCRATCH/511023/C47049-P80

>  <fragmenstein_runtime>  (1147) 
29.656546592712402

>  <fragmenstein_outcome>  (1147) 
too moved

>  <fragmenstein_mode>  (1147) 
expansion

>  <fragmenstein_error>  (1147) 


$$$$
C47049-P39
     RDKit          3D

 42 45  0  0  0  0  0  0  0  0999 V2000
   -8.1201  -12.1223   21.7699 O   0  0  0  0  0  0  0  0  0  0  0  0
   -7.4336  -13.0791   21.4556 C   0  0  0  0  0  0  0  0  0  0  0  0
   -6.3611  -13.0504   20.5901 O   0  0  0  0  0  0  0  0  0  0  0  0
   -5.9164  -11.7367   20.0451 C   0  0  0  0  0  0  0  0  0  0  0  0
   -4.6150  -11.9080   19.1970 C   0  0  0  0  0  0  0  0  0  0  0  0
   -3.8218  -10.7503   18.7671 N   0  0  0  0  0  0  0  0  0  0  0  0
   -2.9102  -10.0513   19.5169 C   0  0  0  0  0  0  0  0  0  0  0  0
   -2.1829   -9.3052   18.6152 C   0  0  0  0  0  0  0  0  0  0  0  0
   -2.6058   -9.5263   17.3336 N   0  0  0  0  0  0  0  0  0  0  0  0
   -3.5996  -10.3777   17.4592 C   0  0  0  0  0  0  0  0  0  0  0  0
   -7.7058  -14.4868   21.9413 C   0  0  0  0  0  0  0  0  0  0  0  0
   -8.7634  -15.2246   21.3936 C   0  0  0  0  0  0  0  0  0  0  0  0
   -8.8916  -16.6122   21.6097 C   0  0  0  0  0  0  0  0  0  0  0  0
   -7.8632  -17.2399   22.3208 C   0  0  0  0  0  0  0  0  0  0  0  0
   -7.5150  -18.5759   22.3988 N   0  0  0  0  0  0  0  0  0  0  0  0
   -6.2527  -18.6637   22.9287 C   0  0  0  0  0  0  0  0  0  0  0  0
   -5.9624  -17.4621   23.5421 C   0  0  0  0  0  0  0  0  0  0  0  0
   -6.8835  -16.5175   23.0045 C   0  0  0  0  0  0  0  0  0  0  0  0
   -6.8675  -15.1058   22.8872 C   0  0  0  0  0  0  0  0  0  0  0  0
   -4.6918  -17.2260   24.2894 C   0  0  0  0  0  0  0  0  0  0  0  0
   -3.9447  -18.5477   24.5396 C   0  0  0  0  0  0  0  0  0  0  0  0
   -3.9034  -19.4267   23.2780 C   0  0  0  0  0  0  0  0  0  0  0  0
   -5.3037  -19.8014   22.7516 C   0  0  0  0  0  0  0  0  0  0  0  0
   -5.7582  -11.0415   20.8737 H   0  0  0  0  0  0  0  0  0  0  0  0
   -6.7206  -11.3499   19.4101 H   0  0  0  0  0  0  0  0  0  0  0  0
   -4.8772  -12.4671   18.2891 H   0  0  0  0  0  0  0  0  0  0  0  0
   -3.9080  -12.5540   19.7245 H   0  0  0  0  0  0  0  0  0  0  0  0
   -2.8306  -10.1619   20.5895 H   0  0  0  0  0  0  0  0  0  0  0  0
   -1.3414   -8.6607   18.8183 H   0  0  0  0  0  0  0  0  0  0  0  0
   -4.1781  -10.7866   16.6409 H   0  0  0  0  0  0  0  0  0  0  0  0
   -9.4590  -14.7338   20.7139 H   0  0  0  0  0  0  0  0  0  0  0  0
   -9.6547  -17.1853   21.0903 H   0  0  0  0  0  0  0  0  0  0  0  0
   -7.9940  -19.3150   21.9006 H   0  0  0  0  0  0  0  0  0  0  0  0
   -6.0923  -14.5330   23.3863 H   0  0  0  0  0  0  0  0  0  0  0  0
   -4.9010  -16.7324   25.2447 H   0  0  0  0  0  0  0  0  0  0  0  0
   -4.0505  -16.5557   23.7045 H   0  0  0  0  0  0  0  0  0  0  0  0
   -2.9247  -18.3307   24.8765 H   0  0  0  0  0  0  0  0  0  0  0  0
   -4.4357  -19.1012   25.3493 H   0  0  0  0  0  0  0  0  0  0  0  0
   -3.3321  -20.3412   23.4744 H   0  0  0  0  0  0  0  0  0  0  0  0
   -3.3614  -18.8822   22.4933 H   0  0  0  0  0  0  0  0  0  0  0  0
   -5.6612  -20.7008   23.2493 H   0  0  0  0  0  0  0  0  0  0  0  0
   -5.2140  -20.0459   21.6871 H   0  0  0  0  0  0  0  0  0  0  0  0
  1  2  2  0
  2  3  1  0
  3  4  1  0
  4  5  1  0
  5  6  1  0
  6  7  1  0
  7  8  2  0
  8  9  1  0
  9 10  2  0
  2 11  1  0
 11 12  2  0
 12 13  1  0
 13 14  2  0
 14 15  1  0
 15 16  1  0
 16 17  2  0
 17 18  1  0
 18 19  2  0
 17 20  1  0
 20 21  1  0
 21 22  1  0
 22 23  1  0
 10  6  1  0
 19 11  1  0
 18 14  1  0
 23 16  1  0
  4 24  1  0
  4 25  1  0
  5 26  1  0
  5 27  1  0
  7 28  1  0
  8 29  1  0
 10 30  1  0
 12 31  1  0
 13 32  1  0
 15 33  1  0
 19 34  1  0
 20 35  1  0
 20 36  1  0
 21 37  1  0
 21 38  1  0
 22 39  1  0
 22 40  1  0
 23 41  1  0
 23 42  1  0
M  END
>  <Energy>  (1148) 
56.227323462606464

>  <compound_id>  (1148) 
47049

>  <target_id>  (1148) 
1

>  <reference_id>  (1148) 
39

>  <inspiration_ids>  (1148) 
[80, 39]

>  <energy_score>  (1148) 
-15.060570567550656

>  <distance_score>  (1148) 
14.58240406248245

>  <path>  (1148) 
/opt/xchem-fragalysis-2/maxwin/BulkDock/SCRATCH/511023/C47049-P39/C47049-P39.minimised.mol

>  <scratch_subdir>  (1148) 
/opt/xchem-fragalysis-2/maxwin/BulkDock/SCRATCH/511023/C47049-P39

>  <fragmenstein_runtime>  (1148) 
25.669517517089844

>  <fragmenstein_outcome>  (1148) 
too moved

>  <fragmenstein_mode>  (1148) 
expansion

>  <fragmenstein_error>  (1148) 


$$$$
C47046-P80
     RDKit          3D

 53 57  0  0  0  0  0  0  0  0999 V2000
   -1.6086  -13.7599   25.3465 C   0  0  0  0  0  0  0  0  0  0  0  0
   -0.9017  -14.5508   23.8108 C   0  0  0  0  0  0  0  0  0  0  0  0
   -2.5188  -15.6169   24.4320 N   0  0  0  0  0  0  0  0  0  0  0  0
   -2.6550  -17.1750   25.4691 C   0  0  0  0  0  0  0  0  0  0  0  0
   -1.6893  -17.8266   25.8537 O   0  0  0  0  0  0  0  0  0  0  0  0
   -4.1907  -17.9725   26.0583 C   0  0  0  0  0  0  0  0  0  0  0  0
   -5.0808  -17.1204   26.6257 C   0  0  0  0  0  0  0  0  0  0  0  0
   -6.0970  -17.6737   27.4439 C   0  0  0  0  0  0  0  0  0  0  0  0
   -6.3698  -19.0769   27.7412 C   0  0  0  0  0  0  0  0  0  0  0  0
   -7.4941  -19.5102   28.2621 N   0  0  0  0  0  0  0  0  0  0  0  0
   -8.0067  -20.9724   27.7298 C   0  0  0  0  0  0  0  0  0  0  0  0
   -6.8834  -21.8726   27.6646 C   0  0  0  0  0  0  0  0  0  0  0  0
   -5.7368  -20.2898   27.5224 C   0  0  0  0  0  0  0  0  0  0  0  0
   -4.4862  -19.6022   26.5621 C   0  0  0  0  0  0  0  0  0  0  0  0
   -8.2836  -23.1097   27.9482 C   0  0  0  0  0  0  0  0  0  0  0  0
   -9.7009  -23.6419   27.4995 C   0  0  0  0  0  0  0  0  0  0  0  0
  -10.6136  -22.7432   28.2454 C   0  0  0  0  0  0  0  0  0  0  0  0
   -9.9226  -21.3428   28.2524 C   0  0  0  0  0  0  0  0  0  0  0  0
    0.2565  -13.9214   22.1318 C   0  0  0  0  0  0  0  0  0  0  0  0
    0.4622  -11.8367   22.5258 C   0  0  0  0  0  0  0  0  0  0  0  0
    0.9437  -10.5178   21.0782 C   0  0  0  0  0  0  0  0  0  0  0  0
    2.2227  -10.5120   19.4304 C   0  0  0  0  0  0  0  0  0  0  0  0
    2.0020   -9.0950   18.6932 N   0  0  0  0  0  0  0  0  0  0  0  0
    2.6966   -8.6550   17.6697 C   0  0  0  0  0  0  0  0  0  0  0  0
    2.3143   -7.3920   17.3083 C   0  0  0  0  0  0  0  0  0  0  0  0
    1.2869   -7.0042   18.0951 N   0  0  0  0  0  0  0  0  0  0  0  0
    1.0555   -8.0568   18.8587 C   0  0  0  0  0  0  0  0  0  0  0  0
    3.4186  -12.3444   20.0412 C   0  0  0  0  0  0  0  0  0  0  0  0
    2.1659  -13.9510   20.8271 C   0  0  0  0  0  0  0  0  0  0  0  0
   -2.0748  -14.5146   26.0081 H   0  0  0  0  0  0  0  0  0  0  0  0
   -0.7651  -13.2738   25.7555 H   0  0  0  0  0  0  0  0  0  0  0  0
   -2.4365  -12.9997   25.3600 H   0  0  0  0  0  0  0  0  0  0  0  0
    0.0123  -14.4692   24.3912 H   0  0  0  0  0  0  0  0  0  0  0  0
   -3.4491  -15.3064   24.1699 H   0  0  0  0  0  0  0  0  0  0  0  0
   -4.9900  -16.0450   26.5208 H   0  0  0  0  0  0  0  0  0  0  0  0
   -6.8119  -16.9481   27.8471 H   0  0  0  0  0  0  0  0  0  0  0  0
   -8.2049  -18.8652   28.5691 H   0  0  0  0  0  0  0  0  0  0  0  0
   -3.8048  -20.3503   26.1446 H   0  0  0  0  0  0  0  0  0  0  0  0
   -8.6056  -22.6439   28.8174 H   0  0  0  0  0  0  0  0  0  0  0  0
   -8.2615  -24.0681   28.5184 H   0  0  0  0  0  0  0  0  0  0  0  0
   -9.9498  -23.8169   26.4568 H   0  0  0  0  0  0  0  0  0  0  0  0
   -9.8914  -24.6536   27.9036 H   0  0  0  0  0  0  0  0  0  0  0  0
  -10.7865  -23.1013   29.2662 H   0  0  0  0  0  0  0  0  0  0  0  0
  -11.6110  -22.7060   27.7884 H   0  0  0  0  0  0  0  0  0  0  0  0
  -10.5242  -21.0320   27.4084 H   0  0  0  0  0  0  0  0  0  0  0  0
  -10.2330  -20.8950   29.2118 H   0  0  0  0  0  0  0  0  0  0  0  0
   -0.4244  -11.1554   22.4938 H   0  0  0  0  0  0  0  0  0  0  0  0
    0.4435   -9.5407   21.2473 H   0  0  0  0  0  0  0  0  0  0  0  0
    3.3541   -9.4499   17.3897 H   0  0  0  0  0  0  0  0  0  0  0  0
    2.6968   -6.7585   16.5201 H   0  0  0  0  0  0  0  0  0  0  0  0
    0.2584   -8.1161   19.5851 H   0  0  0  0  0  0  0  0  0  0  0  0
    4.3073  -12.7015   19.4744 H   0  0  0  0  0  0  0  0  0  0  0  0
    2.9811  -14.3615   21.4790 H   0  0  0  0  0  0  0  0  0  0  0  0
  1  2  1  0
  2  3  1  0
  3  4  1  0
  4  5  2  0
  4  6  1  0
  6  7  2  0
  7  8  1  0
  8  9  2  0
  9 10  1  0
 10 11  1  0
 11 12  2  0
 12 13  1  0
 13 14  2  0
 12 15  1  0
 15 16  1  0
 16 17  1  0
 17 18  1  0
  2 19  1  0
 19 20  2  0
 20 21  1  0
 21 22  2  0
 22 23  1  0
 23 24  1  0
 24 25  2  0
 25 26  1  0
 26 27  2  0
 22 28  1  0
 28 29  2  0
 14  6  1  0
 29 19  1  0
 13  9  1  0
 27 23  1  0
 18 11  1  0
  1 30  1  0
  1 31  1  0
  1 32  1  0
  2 33  1  0
  3 34  1  0
  7 35  1  0
  8 36  1  0
 10 37  1  0
 14 38  1  0
 15 39  1  0
 15 40  1  0
 16 41  1  0
 16 42  1  0
 17 43  1  0
 17 44  1  0
 18 45  1  0
 18 46  1  0
 20 47  1  0
 21 48  1  0
 24 49  1  0
 25 50  1  0
 27 51  1  0
 28 52  1  0
 29 53  1  0
M  END
>  <Energy>  (1149) 
2696.5258599990188

>  <compound_id>  (1149) 
47046

>  <target_id>  (1149) 
1

>  <reference_id>  (1149) 
80

>  <inspiration_ids>  (1149) 
[80, 39]

>  <energy_score>  (1149) 
2603.6779140710496

>  <distance_score>  (1149) 
10.83186362263514

>  <path>  (1149) 
/opt/xchem-fragalysis-2/maxwin/BulkDock/SCRATCH/511023/C47046-P80/C47046-P80.minimised.mol

>  <scratch_subdir>  (1149) 
/opt/xchem-fragalysis-2/maxwin/BulkDock/SCRATCH/511023/C47046-P80

>  <fragmenstein_runtime>  (1149) 
56.4730749130249

>  <fragmenstein_outcome>  (1149) 
too moved

>  <fragmenstein_mode>  (1149) 
expansion

>  <fragmenstein_error>  (1149) 


$$$$
C47046-P39
     RDKit          3D

 53 57  0  0  0  0  0  0  0  0999 V2000
    0.7511  -14.1795   24.0899 C   0  0  0  0  0  0  0  0  0  0  0  0
   -0.7438  -14.2299   23.6137 C   0  0  0  0  0  0  0  0  0  0  0  0
   -2.1619  -15.2092   24.7583 N   0  0  0  0  0  0  0  0  0  0  0  0
   -3.1970  -15.6971   24.7268 C   0  0  0  0  0  0  0  0  0  0  0  0
   -3.6895  -15.3585   23.2194 O   0  0  0  0  0  0  0  0  0  0  0  0
   -4.4240  -16.6591   25.8151 C   0  0  0  0  0  0  0  0  0  0  0  0
   -5.3513  -15.8329   26.4512 C   0  0  0  0  0  0  0  0  0  0  0  0
   -6.5380  -16.2842   27.2531 C   0  0  0  0  0  0  0  0  0  0  0  0
   -7.0096  -17.6320   27.5750 C   0  0  0  0  0  0  0  0  0  0  0  0
   -8.2349  -18.0039   28.2031 N   0  0  0  0  0  0  0  0  0  0  0  0
   -8.5026  -19.4321   28.3672 C   0  0  0  0  0  0  0  0  0  0  0  0
   -7.3405  -20.0755   27.7612 C   0  0  0  0  0  0  0  0  0  0  0  0
   -6.2871  -18.7608   27.1377 C   0  0  0  0  0  0  0  0  0  0  0  0
   -4.9676  -18.1941   26.1910 C   0  0  0  0  0  0  0  0  0  0  0  0
   -7.7994  -22.0571   27.7250 C   0  0  0  0  0  0  0  0  0  0  0  0
   -9.2053  -22.8077   27.9633 C   0  0  0  0  0  0  0  0  0  0  0  0
  -10.4183  -21.9428   28.1718 C   0  0  0  0  0  0  0  0  0  0  0  0
  -10.1204  -20.6409   28.8937 C   0  0  0  0  0  0  0  0  0  0  0  0
   -0.4443  -12.4904   22.5421 C   0  0  0  0  0  0  0  0  0  0  0  0
    0.2538  -11.2149   22.5302 C   0  0  0  0  0  0  0  0  0  0  0  0
   -0.1029   -9.8482   21.7688 C   0  0  0  0  0  0  0  0  0  0  0  0
   -1.1323   -9.5601   20.8532 C   0  0  0  0  0  0  0  0  0  0  0  0
   -0.9664   -8.4506   19.8815 N   0  0  0  0  0  0  0  0  0  0  0  0
   -1.6854   -8.2148   18.7216 C   0  0  0  0  0  0  0  0  0  0  0  0
   -0.9829   -7.2714   17.9962 C   0  0  0  0  0  0  0  0  0  0  0  0
    0.1085   -6.8330   18.6766 N   0  0  0  0  0  0  0  0  0  0  0  0
    0.0740   -7.5279   19.7913 C   0  0  0  0  0  0  0  0  0  0  0  0
   -1.9159  -10.6579   20.5709 C   0  0  0  0  0  0  0  0  0  0  0  0
   -1.5760  -11.9315   21.2067 C   0  0  0  0  0  0  0  0  0  0  0  0
    1.4340  -14.7172   23.4308 H   0  0  0  0  0  0  0  0  0  0  0  0
    1.5748  -13.3377   24.1538 H   0  0  0  0  0  0  0  0  0  0  0  0
    0.8121  -13.9944   25.1797 H   0  0  0  0  0  0  0  0  0  0  0  0
   -0.9600  -13.7123   24.5562 H   0  0  0  0  0  0  0  0  0  0  0  0
   -1.3786  -14.9209   25.1631 H   0  0  0  0  0  0  0  0  0  0  0  0
   -5.2448  -14.7519   26.3301 H   0  0  0  0  0  0  0  0  0  0  0  0
   -7.1584  -15.4598   27.6235 H   0  0  0  0  0  0  0  0  0  0  0  0
   -8.9151  -17.3115   28.4701 H   0  0  0  0  0  0  0  0  0  0  0  0
   -4.4221  -19.0183   25.7239 H   0  0  0  0  0  0  0  0  0  0  0  0
   -6.8413  -22.5454   27.9536 H   0  0  0  0  0  0  0  0  0  0  0  0
   -7.7888  -22.5892   26.7644 H   0  0  0  0  0  0  0  0  0  0  0  0
   -9.4293  -23.5135   27.1406 H   0  0  0  0  0  0  0  0  0  0  0  0
   -9.1605  -23.6415   28.6641 H   0  0  0  0  0  0  0  0  0  0  0  0
  -11.0373  -21.7418   27.2938 H   0  0  0  0  0  0  0  0  0  0  0  0
  -11.1166  -22.5237   28.7951 H   0  0  0  0  0  0  0  0  0  0  0  0
  -11.1554  -20.3586   29.1615 H   0  0  0  0  0  0  0  0  0  0  0  0
  -10.0542  -20.9170   29.9658 H   0  0  0  0  0  0  0  0  0  0  0  0
    1.1940  -11.5353   22.9762 H   0  0  0  0  0  0  0  0  0  0  0  0
    0.6403   -9.0544   21.8276 H   0  0  0  0  0  0  0  0  0  0  0  0
   -2.5769   -8.7720   18.4829 H   0  0  0  0  0  0  0  0  0  0  0  0
   -1.2290   -6.8843   17.0164 H   0  0  0  0  0  0  0  0  0  0  0  0
    0.7354   -7.3626   20.6171 H   0  0  0  0  0  0  0  0  0  0  0  0
   -2.6287  -10.6708   19.7527 H   0  0  0  0  0  0  0  0  0  0  0  0
   -2.1177  -12.7497   20.6778 H   0  0  0  0  0  0  0  0  0  0  0  0
  1  2  1  0
  2  3  1  0
  3  4  1  0
  4  5  2  0
  4  6  1  0
  6  7  2  0
  7  8  1  0
  8  9  2  0
  9 10  1  0
 10 11  1  0
 11 12  2  0
 12 13  1  0
 13 14  2  0
 12 15  1  0
 15 16  1  0
 16 17  1  0
 17 18  1  0
  2 19  1  0
 19 20  2  0
 20 21  1  0
 21 22  2  0
 22 23  1  0
 23 24  1  0
 24 25  2  0
 25 26  1  0
 26 27  2  0
 22 28  1  0
 28 29  2  0
 14  6  1  0
 29 19  1  0
 13  9  1  0
 27 23  1  0
 18 11  1  0
  1 30  1  0
  1 31  1  0
  1 32  1  0
  2 33  1  0
  3 34  1  0
  7 35  1  0
  8 36  1  0
 10 37  1  0
 14 38  1  0
 15 39  1  0
 15 40  1  0
 16 41  1  0
 16 42  1  0
 17 43  1  0
 17 44  1  0
 18 45  1  0
 18 46  1  0
 20 47  1  0
 21 48  1  0
 24 49  1  0
 25 50  1  0
 27 51  1  0
 28 52  1  0
 29 53  1  0
M  END
>  <Energy>  (1150) 
1098.18692092582

>  <compound_id>  (1150) 
47046

>  <target_id>  (1150) 
1

>  <reference_id>  (1150) 
39

>  <inspiration_ids>  (1150) 
[80, 39]

>  <energy_score>  (1150) 
1005.3389749978965

>  <distance_score>  (1150) 
12.251428066794208

>  <path>  (1150) 
/opt/xchem-fragalysis-2/maxwin/BulkDock/SCRATCH/511023/C47046-P39/C47046-P39.minimised.mol

>  <scratch_subdir>  (1150) 
/opt/xchem-fragalysis-2/maxwin/BulkDock/SCRATCH/511023/C47046-P39

>  <fragmenstein_runtime>  (1150) 
55.67146587371826

>  <fragmenstein_outcome>  (1150) 
too moved

>  <fragmenstein_mode>  (1150) 
expansion

>  <fragmenstein_error>  (1150) 


$$$$
C47050-P80
     RDKit          3D

 43 46  0  0  0  0  0  0  0  0999 V2000
   -4.4860  -11.7531   32.6053 O   0  0  0  0  0  0  0  0  0  0  0  0
   -3.7163  -12.2472   31.8272 C   0  0  0  0  0  0  0  0  0  0  0  0
   -2.4455  -11.7554   31.3082 N   0  0  0  0  0  0  0  0  0  0  0  0
   -1.6599  -10.5424   31.6503 C   0  0  0  0  0  0  0  0  0  0  0  0
   -0.3540  -10.0582   30.9033 C   0  0  0  0  0  0  0  0  0  0  0  0
   -0.3655   -9.2436   29.6778 N   0  0  0  0  0  0  0  0  0  0  0  0
   -0.5843   -7.8691   29.5639 C   0  0  0  0  0  0  0  0  0  0  0  0
   -0.2638   -7.5338   28.2611 C   0  0  0  0  0  0  0  0  0  0  0  0
    0.2010   -8.6377   27.5931 N   0  0  0  0  0  0  0  0  0  0  0  0
    0.1912   -9.6141   28.4775 C   0  0  0  0  0  0  0  0  0  0  0  0
   -4.1982  -13.6556   31.3805 C   0  0  0  0  0  0  0  0  0  0  0  0
   -4.8948  -14.4386   32.3346 C   0  0  0  0  0  0  0  0  0  0  0  0
   -5.4512  -15.7088   32.0585 C   0  0  0  0  0  0  0  0  0  0  0  0
   -5.2980  -16.2114   30.7661 C   0  0  0  0  0  0  0  0  0  0  0  0
   -5.6745  -17.4312   30.2315 N   0  0  0  0  0  0  0  0  0  0  0  0
   -5.2686  -17.4956   28.9262 C   0  0  0  0  0  0  0  0  0  0  0  0
   -4.6924  -16.2845   28.5932 C   0  0  0  0  0  0  0  0  0  0  0  0
   -4.6572  -15.4741   29.7668 C   0  0  0  0  0  0  0  0  0  0  0  0
   -4.1180  -14.1820   30.0797 C   0  0  0  0  0  0  0  0  0  0  0  0
   -4.1240  -16.0030   27.2420 C   0  0  0  0  0  0  0  0  0  0  0  0
   -4.5605  -17.0704   26.2222 C   0  0  0  0  0  0  0  0  0  0  0  0
   -4.4676  -18.4897   26.8085 C   0  0  0  0  0  0  0  0  0  0  0  0
   -5.3879  -18.6732   28.0309 C   0  0  0  0  0  0  0  0  0  0  0  0
   -2.1024  -12.4031   30.5998 H   0  0  0  0  0  0  0  0  0  0  0  0
   -1.3365  -10.7594   32.6779 H   0  0  0  0  0  0  0  0  0  0  0  0
   -2.3664   -9.7158   31.7683 H   0  0  0  0  0  0  0  0  0  0  0  0
    0.3248  -10.8988   30.7395 H   0  0  0  0  0  0  0  0  0  0  0  0
    0.1715   -9.4117   31.6216 H   0  0  0  0  0  0  0  0  0  0  0  0
   -0.8962   -7.2695   30.4076 H   0  0  0  0  0  0  0  0  0  0  0  0
   -0.3146   -6.5635   27.7867 H   0  0  0  0  0  0  0  0  0  0  0  0
    0.6418  -10.5818   28.3396 H   0  0  0  0  0  0  0  0  0  0  0  0
   -5.0160  -14.0447   33.3448 H   0  0  0  0  0  0  0  0  0  0  0  0
   -5.9583  -16.2744   32.8344 H   0  0  0  0  0  0  0  0  0  0  0  0
   -6.1069  -18.1739   30.7709 H   0  0  0  0  0  0  0  0  0  0  0  0
   -3.6681  -13.5978   29.2840 H   0  0  0  0  0  0  0  0  0  0  0  0
   -3.0294  -15.9980   27.3148 H   0  0  0  0  0  0  0  0  0  0  0  0
   -4.4346  -15.0119   26.8932 H   0  0  0  0  0  0  0  0  0  0  0  0
   -3.9372  -16.9931   25.3242 H   0  0  0  0  0  0  0  0  0  0  0  0
   -5.5960  -16.8803   25.9116 H   0  0  0  0  0  0  0  0  0  0  0  0
   -3.4277  -18.6832   27.1033 H   0  0  0  0  0  0  0  0  0  0  0  0
   -4.7183  -19.2293   26.0429 H   0  0  0  0  0  0  0  0  0  0  0  0
   -6.4270  -18.7733   27.7039 H   0  0  0  0  0  0  0  0  0  0  0  0
   -5.1022  -19.5890   28.5543 H   0  0  0  0  0  0  0  0  0  0  0  0
  1  2  2  0
  2  3  1  0
  3  4  1  0
  4  5  1  0
  5  6  1  0
  6  7  1  0
  7  8  2  0
  8  9  1  0
  9 10  2  0
  2 11  1  0
 11 12  2  0
 12 13  1  0
 13 14  2  0
 14 15  1  0
 15 16  1  0
 16 17  2  0
 17 18  1  0
 18 19  2  0
 17 20  1  0
 20 21  1  0
 21 22  1  0
 22 23  1  0
 10  6  1  0
 19 11  1  0
 18 14  1  0
 23 16  1  0
  3 24  1  0
  4 25  1  0
  4 26  1  0
  5 27  1  0
  5 28  1  0
  7 29  1  0
  8 30  1  0
 10 31  1  0
 12 32  1  0
 13 33  1  0
 15 34  1  0
 19 35  1  0
 20 36  1  0
 20 37  1  0
 21 38  1  0
 21 39  1  0
 22 40  1  0
 22 41  1  0
 23 42  1  0
 23 43  1  0
M  END
>  <Energy>  (1151) 
49.343107549219638

>  <compound_id>  (1151) 
47050

>  <target_id>  (1151) 
1

>  <reference_id>  (1151) 
80

>  <inspiration_ids>  (1151) 
[80, 39]

>  <energy_score>  (1151) 
10.569533837280915

>  <distance_score>  (1151) 
14.853265634437486

>  <path>  (1151) 
/opt/xchem-fragalysis-2/maxwin/BulkDock/SCRATCH/511023/C47050-P80/C47050-P80.minimised.mol

>  <scratch_subdir>  (1151) 
/opt/xchem-fragalysis-2/maxwin/BulkDock/SCRATCH/511023/C47050-P80

>  <fragmenstein_runtime>  (1151) 
48.601033210754395

>  <fragmenstein_outcome>  (1151) 
too moved

>  <fragmenstein_mode>  (1151) 
expansion

>  <fragmenstein_error>  (1151) 


$$$$
C47050-P39
     RDKit          3D

 43 46  0  0  0  0  0  0  0  0999 V2000
   -7.3778  -19.7373   28.1597 O   0  0  0  0  0  0  0  0  0  0  0  0
   -8.4880  -19.3067   28.2823 C   0  0  0  0  0  0  0  0  0  0  0  0
   -8.9185  -17.7986   28.2362 N   0  0  0  0  0  0  0  0  0  0  0  0
   -8.1110  -16.5224   27.9315 C   0  0  0  0  0  0  0  0  0  0  0  0
   -6.6555  -16.6850   27.2524 C   0  0  0  0  0  0  0  0  0  0  0  0
   -5.8914  -15.5407   26.6562 N   0  0  0  0  0  0  0  0  0  0  0  0
   -6.3365  -14.6021   25.7553 C   0  0  0  0  0  0  0  0  0  0  0  0
   -5.2251  -13.8975   25.3383 C   0  0  0  0  0  0  0  0  0  0  0  0
   -4.0863  -14.3893   25.9054 N   0  0  0  0  0  0  0  0  0  0  0  0
   -4.5097  -15.3636   26.6922 C   0  0  0  0  0  0  0  0  0  0  0  0
   -9.9946  -20.7637   28.4094 C   0  0  0  0  0  0  0  0  0  0  0  0
  -10.9322  -20.9494   29.5105 C   0  0  0  0  0  0  0  0  0  0  0  0
  -12.0131  -21.8527   29.6443 C   0  0  0  0  0  0  0  0  0  0  0  0
  -12.0289  -22.8750   28.7374 C   0  0  0  0  0  0  0  0  0  0  0  0
  -12.9025  -23.9187   28.5749 N   0  0  0  0  0  0  0  0  0  0  0  0
  -12.2612  -24.9011   27.8856 C   0  0  0  0  0  0  0  0  0  0  0  0
  -10.9261  -24.5506   27.9162 C   0  0  0  0  0  0  0  0  0  0  0  0
  -10.8577  -23.1537   28.0529 C   0  0  0  0  0  0  0  0  0  0  0  0
   -9.8492  -22.1379   28.0240 C   0  0  0  0  0  0  0  0  0  0  0  0
   -9.9549  -25.6197   28.2640 C   0  0  0  0  0  0  0  0  0  0  0  0
  -10.6730  -26.4985   29.3098 C   0  0  0  0  0  0  0  0  0  0  0  0
  -11.9381  -27.1720   28.7112 C   0  0  0  0  0  0  0  0  0  0  0  0
  -12.7139  -26.2910   27.7169 C   0  0  0  0  0  0  0  0  0  0  0  0
   -9.9304  -17.7468   28.2856 H   0  0  0  0  0  0  0  0  0  0  0  0
   -8.7489  -15.9302   27.2677 H   0  0  0  0  0  0  0  0  0  0  0  0
   -8.0096  -15.9798   28.8758 H   0  0  0  0  0  0  0  0  0  0  0  0
   -6.7345  -17.3991   26.4260 H   0  0  0  0  0  0  0  0  0  0  0  0
   -5.9864  -17.1286   27.9997 H   0  0  0  0  0  0  0  0  0  0  0  0
   -7.3802  -14.5090   25.4932 H   0  0  0  0  0  0  0  0  0  0  0  0
   -5.2169  -13.0652   24.6525 H   0  0  0  0  0  0  0  0  0  0  0  0
   -3.8776  -15.9949   27.3046 H   0  0  0  0  0  0  0  0  0  0  0  0
  -10.7109  -20.5205   30.4809 H   0  0  0  0  0  0  0  0  0  0  0  0
  -12.6571  -21.8685   30.5158 H   0  0  0  0  0  0  0  0  0  0  0  0
  -13.7612  -24.0323   29.0962 H   0  0  0  0  0  0  0  0  0  0  0  0
   -8.8555  -22.4868   27.7136 H   0  0  0  0  0  0  0  0  0  0  0  0
   -9.0594  -25.2044   28.7251 H   0  0  0  0  0  0  0  0  0  0  0  0
   -9.6997  -26.2270   27.3976 H   0  0  0  0  0  0  0  0  0  0  0  0
  -10.9867  -25.8734   30.1598 H   0  0  0  0  0  0  0  0  0  0  0  0
   -9.9842  -27.2141   29.7473 H   0  0  0  0  0  0  0  0  0  0  0  0
  -12.5662  -27.4894   29.5428 H   0  0  0  0  0  0  0  0  0  0  0  0
  -11.6904  -28.0882   28.1767 H   0  0  0  0  0  0  0  0  0  0  0  0
  -12.4465  -26.5895   26.6961 H   0  0  0  0  0  0  0  0  0  0  0  0
  -13.7923  -26.4194   27.7783 H   0  0  0  0  0  0  0  0  0  0  0  0
  1  2  2  0
  2  3  1  0
  3  4  1  0
  4  5  1  0
  5  6  1  0
  6  7  1  0
  7  8  2  0
  8  9  1  0
  9 10  2  0
  2 11  1  0
 11 12  2  0
 12 13  1  0
 13 14  2  0
 14 15  1  0
 15 16  1  0
 16 17  2  0
 17 18  1  0
 18 19  2  0
 17 20  1  0
 20 21  1  0
 21 22  1  0
 22 23  1  0
 10  6  1  0
 19 11  1  0
 18 14  1  0
 23 16  1  0
  3 24  1  0
  4 25  1  0
  4 26  1  0
  5 27  1  0
  5 28  1  0
  7 29  1  0
  8 30  1  0
 10 31  1  0
 12 32  1  0
 13 33  1  0
 15 34  1  0
 19 35  1  0
 20 36  1  0
 20 37  1  0
 21 38  1  0
 21 39  1  0
 22 40  1  0
 22 41  1  0
 23 42  1  0
 23 43  1  0
M  END
>  <Energy>  (1152) 
222.18645959365904

>  <compound_id>  (1152) 
47050

>  <target_id>  (1152) 
1

>  <reference_id>  (1152) 
39

>  <inspiration_ids>  (1152) 
[80, 39]

>  <energy_score>  (1152) 
183.41288588172034

>  <distance_score>  (1152) 
14.33794021330985

>  <path>  (1152) 
/opt/xchem-fragalysis-2/maxwin/BulkDock/SCRATCH/511023/C47050-P39/C47050-P39.minimised.mol

>  <scratch_subdir>  (1152) 
/opt/xchem-fragalysis-2/maxwin/BulkDock/SCRATCH/511023/C47050-P39

>  <fragmenstein_runtime>  (1152) 
38.015156269073486

>  <fragmenstein_outcome>  (1152) 
too moved

>  <fragmenstein_mode>  (1152) 
expansion

>  <fragmenstein_error>  (1152) 


$$$$
C47047-P80
     RDKit          3D

 52 55  0  0  0  0  0  0  0  0999 V2000
   -4.2746   -7.1980   25.5125 C   0  0  0  0  0  0  0  0  0  0  0  0
   -4.0688   -8.7019   25.4035 C   0  0  0  0  0  0  0  0  0  0  0  0
   -3.8480   -9.1285   23.9861 C   0  0  0  0  0  0  0  0  0  0  0  0
   -3.0536   -8.5167   23.1181 N   0  0  0  0  0  0  0  0  0  0  0  0
   -3.2722   -9.1068   21.9055 C   0  0  0  0  0  0  0  0  0  0  0  0
   -4.1563  -10.1546   22.0530 C   0  0  0  0  0  0  0  0  0  0  0  0
   -4.4356  -10.2504   23.4130 N   0  0  0  0  0  0  0  0  0  0  0  0
   -5.2657  -11.3319   24.0587 C   0  0  0  0  0  0  0  0  0  0  0  0
   -4.6107  -12.1952   25.2228 C   0  0  0  0  0  0  0  0  0  0  0  0
   -3.7322  -11.6713   25.8518 O   0  0  0  0  0  0  0  0  0  0  0  0
   -5.2058  -13.5440   25.3424 N   0  0  0  0  0  0  0  0  0  0  0  0
   -4.8328  -14.7109   26.2170 C   0  0  0  0  0  0  0  0  0  0  0  0
   -5.9623  -15.5778   26.8275 C   0  0  0  0  0  0  0  0  0  0  0  0
   -7.1687  -14.9561   27.1387 C   0  0  0  0  0  0  0  0  0  0  0  0
   -8.2274  -15.6688   27.6843 C   0  0  0  0  0  0  0  0  0  0  0  0
   -8.0585  -17.0319   27.9319 C   0  0  0  0  0  0  0  0  0  0  0  0
   -9.0397  -17.8986   28.2612 N   0  0  0  0  0  0  0  0  0  0  0  0
   -8.6313  -19.2832   28.4193 C   0  0  0  0  0  0  0  0  0  0  0  0
   -7.1638  -19.1760   28.1315 C   0  0  0  0  0  0  0  0  0  0  0  0
   -6.8788  -17.7431   27.7683 C   0  0  0  0  0  0  0  0  0  0  0  0
   -5.8019  -16.9765   27.1898 C   0  0  0  0  0  0  0  0  0  0  0  0
   -6.2417  -20.3982   27.8649 C   0  0  0  0  0  0  0  0  0  0  0  0
   -7.0144  -22.1394   27.7327 C   0  0  0  0  0  0  0  0  0  0  0  0
   -8.5833  -22.9680   28.0825 C   0  0  0  0  0  0  0  0  0  0  0  0
   -9.8796  -22.3765   28.5096 C   0  0  0  0  0  0  0  0  0  0  0  0
   -9.9247  -20.8796   28.4438 C   0  0  0  0  0  0  0  0  0  0  0  0
   -4.4542   -6.9150   26.5545 H   0  0  0  0  0  0  0  0  0  0  0  0
   -3.3945   -6.6488   25.1609 H   0  0  0  0  0  0  0  0  0  0  0  0
   -5.1348   -6.8729   24.9174 H   0  0  0  0  0  0  0  0  0  0  0  0
   -4.9465   -9.1994   25.8284 H   0  0  0  0  0  0  0  0  0  0  0  0
   -3.2034   -8.9899   26.0080 H   0  0  0  0  0  0  0  0  0  0  0  0
   -2.7811   -8.7595   21.0043 H   0  0  0  0  0  0  0  0  0  0  0  0
   -4.5610  -10.8552   21.3360 H   0  0  0  0  0  0  0  0  0  0  0  0
   -5.5675  -11.9973   23.2432 H   0  0  0  0  0  0  0  0  0  0  0  0
   -6.1500  -10.8226   24.4553 H   0  0  0  0  0  0  0  0  0  0  0  0
   -5.8718  -13.6810   24.5924 H   0  0  0  0  0  0  0  0  0  0  0  0
   -4.2103  -14.3196   27.0289 H   0  0  0  0  0  0  0  0  0  0  0  0
   -4.2077  -15.3523   25.5861 H   0  0  0  0  0  0  0  0  0  0  0  0
   -7.3044  -13.8934   26.9489 H   0  0  0  0  0  0  0  0  0  0  0  0
   -9.1771  -15.1749   27.8694 H   0  0  0  0  0  0  0  0  0  0  0  0
  -10.0062  -17.6280   28.3483 H   0  0  0  0  0  0  0  0  0  0  0  0
   -4.8552  -17.4745   26.9927 H   0  0  0  0  0  0  0  0  0  0  0  0
   -5.5850  -20.1266   27.0128 H   0  0  0  0  0  0  0  0  0  0  0  0
   -5.3601  -20.3696   28.5262 H   0  0  0  0  0  0  0  0  0  0  0  0
   -6.8679  -22.5717   26.7356 H   0  0  0  0  0  0  0  0  0  0  0  0
   -6.1850  -22.7634   28.0772 H   0  0  0  0  0  0  0  0  0  0  0  0
   -8.8470  -23.4573   27.1415 H   0  0  0  0  0  0  0  0  0  0  0  0
   -8.6258  -23.9210   28.6390 H   0  0  0  0  0  0  0  0  0  0  0  0
  -10.6414  -22.7806   27.8038 H   0  0  0  0  0  0  0  0  0  0  0  0
  -10.4229  -22.8119   29.3578 H   0  0  0  0  0  0  0  0  0  0  0  0
  -10.5106  -20.9671   27.5122 H   0  0  0  0  0  0  0  0  0  0  0  0
  -10.5210  -20.6816   29.3747 H   0  0  0  0  0  0  0  0  0  0  0  0
  1  2  1  0
  2  3  1  0
  3  4  2  0
  4  5  1  0
  5  6  2  0
  6  7  1  0
  7  8  1  0
  8  9  1  0
  9 10  2  0
  9 11  1  0
 11 12  1  0
 12 13  1  0
 13 14  2  0
 14 15  1  0
 15 16  2  0
 16 17  1  0
 17 18  1  0
 18 19  2  0
 19 20  1  0
 20 21  2  0
 19 22  1  0
 22 23  1  0
 23 24  1  0
 24 25  1  0
 25 26  1  0
  7  3  1  0
 21 13  1  0
 20 16  1  0
 26 18  1  0
  1 27  1  0
  1 28  1  0
  1 29  1  0
  2 30  1  0
  2 31  1  0
  5 32  1  0
  6 33  1  0
  8 34  1  0
  8 35  1  0
 11 36  1  0
 12 37  1  0
 12 38  1  0
 14 39  1  0
 15 40  1  0
 17 41  1  0
 21 42  1  0
 22 43  1  0
 22 44  1  0
 23 45  1  0
 23 46  1  0
 24 47  1  0
 24 48  1  0
 25 49  1  0
 25 50  1  0
 26 51  1  0
 26 52  1  0
M  END
>  <Energy>  (1153) 
271.97089179803072

>  <compound_id>  (1153) 
47047

>  <target_id>  (1153) 
1

>  <reference_id>  (1153) 
80

>  <inspiration_ids>  (1153) 
[80, 39]

>  <energy_score>  (1153) 
228.495636429858

>  <distance_score>  (1153) 
13.817407883876722

>  <path>  (1153) 
/opt/xchem-fragalysis-2/maxwin/BulkDock/SCRATCH/511023/C47047-P80/C47047-P80.minimised.mol

>  <scratch_subdir>  (1153) 
/opt/xchem-fragalysis-2/maxwin/BulkDock/SCRATCH/511023/C47047-P80

>  <fragmenstein_runtime>  (1153) 
32.199586153030396

>  <fragmenstein_outcome>  (1153) 
too moved

>  <fragmenstein_mode>  (1153) 
expansion

>  <fragmenstein_error>  (1153) 


$$$$
C47047-P39
     RDKit          3D

 52 55  0  0  0  0  0  0  0  0999 V2000
   -6.1870  -12.2877   21.7002 C   0  0  0  0  0  0  0  0  0  0  0  0
   -6.0930  -13.3412   22.7934 C   0  0  0  0  0  0  0  0  0  0  0  0
   -5.2994  -12.8833   23.9783 C   0  0  0  0  0  0  0  0  0  0  0  0
   -4.7136  -11.7003   24.1113 N   0  0  0  0  0  0  0  0  0  0  0  0
   -4.1638  -11.6999   25.3607 C   0  0  0  0  0  0  0  0  0  0  0  0
   -4.3378  -12.9241   25.9597 C   0  0  0  0  0  0  0  0  0  0  0  0
   -5.1012  -13.6787   25.1067 N   0  0  0  0  0  0  0  0  0  0  0  0
   -5.5731  -15.0874   25.3253 C   0  0  0  0  0  0  0  0  0  0  0  0
   -5.9649  -15.5511   26.7849 C   0  0  0  0  0  0  0  0  0  0  0  0
   -6.0369  -14.7135   27.6407 O   0  0  0  0  0  0  0  0  0  0  0  0
   -6.1130  -17.0184   26.8629 N   0  0  0  0  0  0  0  0  0  0  0  0
   -6.2963  -17.9127   28.0293 C   0  0  0  0  0  0  0  0  0  0  0  0
   -7.3408  -18.9635   28.0208 C   0  0  0  0  0  0  0  0  0  0  0  0
   -8.6239  -18.9323   28.2329 C   0  0  0  0  0  0  0  0  0  0  0  0
   -9.7957  -20.4580   28.2384 C   0  0  0  0  0  0  0  0  0  0  0  0
   -9.8603  -21.7209   27.9039 C   0  0  0  0  0  0  0  0  0  0  0  0
  -10.9228  -22.5465   27.8227 N   0  0  0  0  0  0  0  0  0  0  0  0
  -10.4334  -23.6876   27.2859 C   0  0  0  0  0  0  0  0  0  0  0  0
   -9.1561  -23.6149   27.9034 C   0  0  0  0  0  0  0  0  0  0  0  0
   -8.4832  -21.9901   27.6238 C   0  0  0  0  0  0  0  0  0  0  0  0
   -7.4303  -20.3717   27.7727 C   0  0  0  0  0  0  0  0  0  0  0  0
   -9.1293  -24.9294   28.8724 C   0  0  0  0  0  0  0  0  0  0  0  0
  -10.4473  -25.1959   29.6527 C   0  0  0  0  0  0  0  0  0  0  0  0
  -11.5380  -25.9670   28.9031 C   0  0  0  0  0  0  0  0  0  0  0  0
  -11.3928  -26.0406   27.3901 C   0  0  0  0  0  0  0  0  0  0  0  0
  -11.3669  -24.6886   26.7072 C   0  0  0  0  0  0  0  0  0  0  0  0
   -5.1962  -12.0149   21.3219 H   0  0  0  0  0  0  0  0  0  0  0  0
   -6.6699  -11.3762   22.0689 H   0  0  0  0  0  0  0  0  0  0  0  0
   -6.7769  -12.6667   20.8597 H   0  0  0  0  0  0  0  0  0  0  0  0
   -5.6341  -14.2466   22.3799 H   0  0  0  0  0  0  0  0  0  0  0  0
   -7.1079  -13.6003   23.1163 H   0  0  0  0  0  0  0  0  0  0  0  0
   -3.6722  -10.8269   25.7666 H   0  0  0  0  0  0  0  0  0  0  0  0
   -4.0637  -13.2982   26.9351 H   0  0  0  0  0  0  0  0  0  0  0  0
   -6.4562  -15.2233   24.6945 H   0  0  0  0  0  0  0  0  0  0  0  0
   -4.7510  -15.7116   24.9584 H   0  0  0  0  0  0  0  0  0  0  0  0
   -5.9066  -17.4215   25.9577 H   0  0  0  0  0  0  0  0  0  0  0  0
   -6.4586  -17.2632   28.8978 H   0  0  0  0  0  0  0  0  0  0  0  0
   -5.3196  -18.3836   28.1888 H   0  0  0  0  0  0  0  0  0  0  0  0
   -9.0708  -17.9080   28.2940 H   0  0  0  0  0  0  0  0  0  0  0  0
  -10.5199  -20.4562   29.1441 H   0  0  0  0  0  0  0  0  0  0  0  0
  -11.8882  -22.2497   27.8253 H   0  0  0  0  0  0  0  0  0  0  0  0
   -6.2574  -20.3305   27.3753 H   0  0  0  0  0  0  0  0  0  0  0  0
   -8.9299  -25.8168   28.2662 H   0  0  0  0  0  0  0  0  0  0  0  0
   -8.3954  -24.9743   29.6501 H   0  0  0  0  0  0  0  0  0  0  0  0
  -10.1985  -25.7850   30.5466 H   0  0  0  0  0  0  0  0  0  0  0  0
  -10.8704  -24.2632   30.0422 H   0  0  0  0  0  0  0  0  0  0  0  0
  -11.5739  -26.9918   29.2922 H   0  0  0  0  0  0  0  0  0  0  0  0
  -12.5076  -25.5201   29.1508 H   0  0  0  0  0  0  0  0  0  0  0  0
  -10.5029  -26.6141   27.1173 H   0  0  0  0  0  0  0  0  0  0  0  0
  -12.2397  -26.6097   26.9902 H   0  0  0  0  0  0  0  0  0  0  0  0
  -12.3876  -24.2824   26.7113 H   0  0  0  0  0  0  0  0  0  0  0  0
  -11.1147  -24.8279   25.6491 H   0  0  0  0  0  0  0  0  0  0  0  0
  1  2  1  0
  2  3  1  0
  3  4  2  0
  4  5  1  0
  5  6  2  0
  6  7  1  0
  7  8  1  0
  8  9  1  0
  9 10  2  0
  9 11  1  0
 11 12  1  0
 12 13  1  0
 13 14  2  0
 14 15  1  0
 15 16  2  0
 16 17  1  0
 17 18  1  0
 18 19  2  0
 19 20  1  0
 20 21  2  0
 19 22  1  0
 22 23  1  0
 23 24  1  0
 24 25  1  0
 25 26  1  0
  7  3  1  0
 21 13  1  0
 20 16  1  0
 26 18  1  0
  1 27  1  0
  1 28  1  0
  1 29  1  0
  2 30  1  0
  2 31  1  0
  5 32  1  0
  6 33  1  0
  8 34  1  0
  8 35  1  0
 11 36  1  0
 12 37  1  0
 12 38  1  0
 14 39  1  0
 15 40  1  0
 17 41  1  0
 21 42  1  0
 22 43  1  0
 22 44  1  0
 23 45  1  0
 23 46  1  0
 24 47  1  0
 24 48  1  0
 25 49  1  0
 25 50  1  0
 26 51  1  0
 26 52  1  0
M  END
>  <Energy>  (1154) 
439.23872562914966

>  <compound_id>  (1154) 
47047

>  <target_id>  (1154) 
1

>  <reference_id>  (1154) 
39

>  <inspiration_ids>  (1154) 
[80, 39]

>  <energy_score>  (1154) 
395.7634702609673

>  <distance_score>  (1154) 
13.766077222119714

>  <path>  (1154) 
/opt/xchem-fragalysis-2/maxwin/BulkDock/SCRATCH/511023/C47047-P39/C47047-P39.minimised.mol

>  <scratch_subdir>  (1154) 
/opt/xchem-fragalysis-2/maxwin/BulkDock/SCRATCH/511023/C47047-P39

>  <fragmenstein_runtime>  (1154) 
49.0154504776001

>  <fragmenstein_outcome>  (1154) 
too moved

>  <fragmenstein_mode>  (1154) 
expansion

>  <fragmenstein_error>  (1154) 


$$$$
C47048-P80
     RDKit          3D

 49 52  0  0  0  0  0  0  0  0999 V2000
    8.0398   -4.2159   22.5799 C   0  0  0  0  0  0  0  0  0  0  0  0
    6.9834   -5.0926   23.4109 C   0  0  0  0  0  0  0  0  0  0  0  0
    6.1191   -6.8343   24.0178 C   0  0  0  0  0  0  0  0  0  0  0  0
    7.2195   -7.4474   23.8904 N   0  0  0  0  0  0  0  0  0  0  0  0
    6.4999   -7.0538   22.8486 C   0  0  0  0  0  0  0  0  0  0  0  0
    5.0677   -7.3347   23.2397 C   0  0  0  0  0  0  0  0  0  0  0  0
    5.1289   -8.3050   24.2843 N   0  0  0  0  0  0  0  0  0  0  0  0
    4.1168   -9.8495   23.3430 C   0  0  0  0  0  0  0  0  0  0  0  0
    2.8711  -11.6375   23.3175 C   0  0  0  0  0  0  0  0  0  0  0  0
    3.5282  -12.5708   23.5050 O   0  0  0  0  0  0  0  0  0  0  0  0
    1.0682  -12.0205   23.1443 N   0  0  0  0  0  0  0  0  0  0  0  0
   -0.0229  -13.8200   23.3615 C   0  0  0  0  0  0  0  0  0  0  0  0
   -1.5298  -15.0349   23.6415 C   0  0  0  0  0  0  0  0  0  0  0  0
   -2.4108  -15.1960   24.8306 C   0  0  0  0  0  0  0  0  0  0  0  0
   -3.4834  -16.1154   25.0004 C   0  0  0  0  0  0  0  0  0  0  0  0
   -3.6996  -17.0060   23.9622 C   0  0  0  0  0  0  0  0  0  0  0  0
   -4.5005  -18.1290   23.9039 N   0  0  0  0  0  0  0  0  0  0  0  0
   -4.2580  -18.7867   22.7331 C   0  0  0  0  0  0  0  0  0  0  0  0
   -3.4424  -17.9960   21.9520 C   0  0  0  0  0  0  0  0  0  0  0  0
   -3.0295  -16.8878   22.7435 C   0  0  0  0  0  0  0  0  0  0  0  0
   -2.0334  -15.8610   22.5493 C   0  0  0  0  0  0  0  0  0  0  0  0
   -2.9635  -18.4052   20.5972 C   0  0  0  0  0  0  0  0  0  0  0  0
   -3.7230  -19.6398   20.0852 C   0  0  0  0  0  0  0  0  0  0  0  0
   -3.9137  -20.6865   21.1951 C   0  0  0  0  0  0  0  0  0  0  0  0
   -4.7504  -20.1341   22.3662 C   0  0  0  0  0  0  0  0  0  0  0  0
    7.5945   -3.2128   22.4726 H   0  0  0  0  0  0  0  0  0  0  0  0
    8.3194   -4.4976   21.5619 H   0  0  0  0  0  0  0  0  0  0  0  0
    8.9626   -4.0312   23.1570 H   0  0  0  0  0  0  0  0  0  0  0  0
    7.9701   -5.5385   23.6310 H   0  0  0  0  0  0  0  0  0  0  0  0
    6.8109   -4.2106   24.0117 H   0  0  0  0  0  0  0  0  0  0  0  0
    6.7738   -6.9654   21.8327 H   0  0  0  0  0  0  0  0  0  0  0  0
    4.4219   -7.8371   22.6374 H   0  0  0  0  0  0  0  0  0  0  0  0
    3.1837   -8.9762   23.0683 H   0  0  0  0  0  0  0  0  0  0  0  0
    5.0234  -10.3116   22.9021 H   0  0  0  0  0  0  0  0  0  0  0  0
    0.5902  -11.1590   22.8980 H   0  0  0  0  0  0  0  0  0  0  0  0
    0.0747  -14.3036   22.4108 H   0  0  0  0  0  0  0  0  0  0  0  0
    0.5911  -14.2278   24.1404 H   0  0  0  0  0  0  0  0  0  0  0  0
   -2.2753  -14.5132   25.6673 H   0  0  0  0  0  0  0  0  0  0  0  0
   -4.0270  -16.1673   25.9372 H   0  0  0  0  0  0  0  0  0  0  0  0
   -5.0508  -18.4752   24.6754 H   0  0  0  0  0  0  0  0  0  0  0  0
   -1.5264  -15.8977   21.5963 H   0  0  0  0  0  0  0  0  0  0  0  0
   -3.0779  -17.5798   19.8857 H   0  0  0  0  0  0  0  0  0  0  0  0
   -1.8937  -18.6405   20.6591 H   0  0  0  0  0  0  0  0  0  0  0  0
   -4.7080  -19.3357   19.7083 H   0  0  0  0  0  0  0  0  0  0  0  0
   -3.1792  -20.0795   19.2416 H   0  0  0  0  0  0  0  0  0  0  0  0
   -4.3854  -21.5812   20.7819 H   0  0  0  0  0  0  0  0  0  0  0  0
   -2.9272  -20.9958   21.5654 H   0  0  0  0  0  0  0  0  0  0  0  0
   -4.6883  -20.8252   23.2123 H   0  0  0  0  0  0  0  0  0  0  0  0
   -5.7974  -20.0314   22.0775 H   0  0  0  0  0  0  0  0  0  0  0  0
  1  2  1  0
  2  3  1  0
  3  4  2  0
  4  5  1  0
  5  6  2  0
  6  7  1  0
  7  8  1  0
  8  9  1  0
  9 10  2  0
  9 11  1  0
 11 12  1  0
 12 13  1  0
 13 14  2  0
 14 15  1  0
 15 16  2  0
 16 17  1  0
 17 18  1  0
 18 19  2  0
 19 20  1  0
 20 21  2  0
 19 22  1  0
 22 23  1  0
 23 24  1  0
 24 25  1  0
  7  3  1  0
 21 13  1  0
 20 16  1  0
 25 18  1  0
  1 26  1  0
  1 27  1  0
  1 28  1  0
  2 29  1  0
  2 30  1  0
  5 31  1  0
  6 32  1  0
  8 33  1  0
  8 34  1  0
 11 35  1  0
 12 36  1  0
 12 37  1  0
 14 38  1  0
 15 39  1  0
 17 40  1  0
 21 41  1  0
 22 42  1  0
 22 43  1  0
 23 44  1  0
 23 45  1  0
 24 46  1  0
 24 47  1  0
 25 48  1  0
 25 49  1  0
M  END
>  <Energy>  (1155) 
1275.517635632556

>  <compound_id>  (1155) 
47048

>  <target_id>  (1155) 
1

>  <reference_id>  (1155) 
80

>  <inspiration_ids>  (1155) 
[80, 39]

>  <energy_score>  (1155) 
1215.059407579539

>  <distance_score>  (1155) 
13.695261184328375

>  <path>  (1155) 
/opt/xchem-fragalysis-2/maxwin/BulkDock/SCRATCH/511023/C47048-P80/C47048-P80.minimised.mol

>  <scratch_subdir>  (1155) 
/opt/xchem-fragalysis-2/maxwin/BulkDock/SCRATCH/511023/C47048-P80

>  <fragmenstein_runtime>  (1155) 
34.710668325424194

>  <fragmenstein_outcome>  (1155) 
too moved

>  <fragmenstein_mode>  (1155) 
expansion

>  <fragmenstein_error>  (1155) 


$$$$
C47048-P39
     RDKit          3D

 49 52  0  0  0  0  0  0  0  0999 V2000
   -7.5003  -12.0690   22.6216 C   0  0  0  0  0  0  0  0  0  0  0  0
   -6.1307  -12.7175   22.7419 C   0  0  0  0  0  0  0  0  0  0  0  0
   -5.4211  -12.2875   23.9863 C   0  0  0  0  0  0  0  0  0  0  0  0
   -4.5799  -11.2634   24.0472 N   0  0  0  0  0  0  0  0  0  0  0  0
   -4.2074  -11.1772   25.3575 C   0  0  0  0  0  0  0  0  0  0  0  0
   -4.7932  -12.1781   26.0971 C   0  0  0  0  0  0  0  0  0  0  0  0
   -5.6006  -12.8909   25.2372 N   0  0  0  0  0  0  0  0  0  0  0  0
   -6.7052  -13.8509   25.6356 C   0  0  0  0  0  0  0  0  0  0  0  0
   -6.4066  -15.0166   26.6586 C   0  0  0  0  0  0  0  0  0  0  0  0
   -5.2593  -15.1761   26.9782 O   0  0  0  0  0  0  0  0  0  0  0  0
   -7.6374  -15.7613   27.0594 N   0  0  0  0  0  0  0  0  0  0  0  0
   -7.8314  -16.8592   28.0474 C   0  0  0  0  0  0  0  0  0  0  0  0
   -9.1217  -17.7213   28.1524 C   0  0  0  0  0  0  0  0  0  0  0  0
  -10.5271  -17.1825   28.5105 C   0  0  0  0  0  0  0  0  0  0  0  0
  -11.9479  -18.1933   28.8289 C   0  0  0  0  0  0  0  0  0  0  0  0
  -11.8583  -20.1253   29.0047 C   0  0  0  0  0  0  0  0  0  0  0  0
  -12.3688  -21.2970   29.5400 N   0  0  0  0  0  0  0  0  0  0  0  0
  -11.8085  -22.4250   29.0407 C   0  0  0  0  0  0  0  0  0  0  0  0
  -10.5739  -22.1982   28.4862 C   0  0  0  0  0  0  0  0  0  0  0  0
  -10.2750  -20.7594   28.6277 C   0  0  0  0  0  0  0  0  0  0  0  0
   -8.9199  -19.4540   28.2678 C   0  0  0  0  0  0  0  0  0  0  0  0
   -9.8982  -23.4513   27.9832 C   0  0  0  0  0  0  0  0  0  0  0  0
  -10.9053  -24.3012   27.1845 C   0  0  0  0  0  0  0  0  0  0  0  0
  -12.1561  -24.6743   28.0053 C   0  0  0  0  0  0  0  0  0  0  0  0
  -12.4340  -23.7741   29.2169 C   0  0  0  0  0  0  0  0  0  0  0  0
   -7.9857  -12.3795   21.6910 H   0  0  0  0  0  0  0  0  0  0  0  0
   -8.1534  -12.3505   23.4540 H   0  0  0  0  0  0  0  0  0  0  0  0
   -7.4203  -10.9765   22.6147 H   0  0  0  0  0  0  0  0  0  0  0  0
   -6.2201  -13.8082   22.7041 H   0  0  0  0  0  0  0  0  0  0  0  0
   -5.5270  -12.4281   21.8735 H   0  0  0  0  0  0  0  0  0  0  0  0
   -3.5533  -10.3953   25.7157 H   0  0  0  0  0  0  0  0  0  0  0  0
   -4.7493  -12.4128   27.1522 H   0  0  0  0  0  0  0  0  0  0  0  0
   -7.0596  -14.3143   24.7116 H   0  0  0  0  0  0  0  0  0  0  0  0
   -7.4874  -13.2069   26.0525 H   0  0  0  0  0  0  0  0  0  0  0  0
   -8.4263  -15.4081   26.5331 H   0  0  0  0  0  0  0  0  0  0  0  0
   -7.6549  -16.4080   29.0299 H   0  0  0  0  0  0  0  0  0  0  0  0
   -6.9876  -17.5372   27.8776 H   0  0  0  0  0  0  0  0  0  0  0  0
  -10.6807  -16.1106   28.6537 H   0  0  0  0  0  0  0  0  0  0  0  0
  -12.5105  -17.5134   29.4370 H   0  0  0  0  0  0  0  0  0  0  0  0
  -13.1565  -21.4348   30.1478 H   0  0  0  0  0  0  0  0  0  0  0  0
   -7.8004  -19.6451   28.2158 H   0  0  0  0  0  0  0  0  0  0  0  0
   -9.5945  -24.1061   28.8071 H   0  0  0  0  0  0  0  0  0  0  0  0
   -8.9824  -23.2238   27.4475 H   0  0  0  0  0  0  0  0  0  0  0  0
  -11.2298  -23.7611   26.2873 H   0  0  0  0  0  0  0  0  0  0  0  0
  -10.4344  -25.2261   26.8440 H   0  0  0  0  0  0  0  0  0  0  0  0
  -13.0220  -24.6655   27.3323 H   0  0  0  0  0  0  0  0  0  0  0  0
  -12.0703  -25.7110   28.3551 H   0  0  0  0  0  0  0  0  0  0  0  0
  -13.5129  -23.7023   29.3829 H   0  0  0  0  0  0  0  0  0  0  0  0
  -12.0064  -24.2359   30.1162 H   0  0  0  0  0  0  0  0  0  0  0  0
  1  2  1  0
  2  3  1  0
  3  4  2  0
  4  5  1  0
  5  6  2  0
  6  7  1  0
  7  8  1  0
  8  9  1  0
  9 10  2  0
  9 11  1  0
 11 12  1  0
 12 13  1  0
 13 14  2  0
 14 15  1  0
 15 16  2  0
 16 17  1  0
 17 18  1  0
 18 19  2  0
 19 20  1  0
 20 21  2  0
 19 22  1  0
 22 23  1  0
 23 24  1  0
 24 25  1  0
  7  3  1  0
 21 13  1  0
 20 16  1  0
 25 18  1  0
  1 26  1  0
  1 27  1  0
  1 28  1  0
  2 29  1  0
  2 30  1  0
  5 31  1  0
  6 32  1  0
  8 33  1  0
  8 34  1  0
 11 35  1  0
 12 36  1  0
 12 37  1  0
 14 38  1  0
 15 39  1  0
 17 40  1  0
 21 41  1  0
 22 42  1  0
 22 43  1  0
 23 44  1  0
 23 45  1  0
 24 46  1  0
 24 47  1  0
 25 48  1  0
 25 49  1  0
M  END
>  <Energy>  (1156) 
346.75511256410431

>  <compound_id>  (1156) 
47048

>  <target_id>  (1156) 
1

>  <reference_id>  (1156) 
39

>  <inspiration_ids>  (1156) 
[80, 39]

>  <energy_score>  (1156) 
286.296884511086

>  <distance_score>  (1156) 
13.976932261511362

>  <path>  (1156) 
/opt/xchem-fragalysis-2/maxwin/BulkDock/SCRATCH/511023/C47048-P39/C47048-P39.minimised.mol

>  <scratch_subdir>  (1156) 
/opt/xchem-fragalysis-2/maxwin/BulkDock/SCRATCH/511023/C47048-P39

>  <fragmenstein_runtime>  (1156) 
35.76562738418579

>  <fragmenstein_outcome>  (1156) 
too moved

>  <fragmenstein_mode>  (1156) 
expansion

>  <fragmenstein_error>  (1156) 


$$$$
C14119-P30
     RDKit          3D

 50 51  0  0  0  0  0  0  0  0999 V2000
   -8.6923   -4.1320    5.4971 C   0  0  0  0  0  0  0  0  0  0  0  0
   -8.1516   -5.3868    6.1629 C   0  0  0  0  0  0  0  0  0  0  0  0
   -6.6407   -5.3676    6.3457 C   0  0  0  0  0  0  0  0  0  0  0  0
   -6.1982   -6.8217    6.1576 C   0  0  0  0  0  0  0  0  0  0  0  0
   -7.4295   -7.6184    6.0186 N   0  0  0  0  0  0  0  0  0  0  0  0
   -7.2519   -8.8870    5.2405 C   0  0  0  0  0  0  0  0  0  0  0  0
   -6.2152   -9.9279    5.8545 C   0  0  0  0  0  0  0  0  0  0  0  0
   -5.6263   -9.6510    6.8617 O   0  0  0  0  0  0  0  0  0  0  0  0
   -6.0941  -11.0893    4.9678 N   0  0  0  0  0  0  0  0  0  0  0  0
   -5.1513  -12.2188    4.9844 C   0  0  0  0  0  0  0  0  0  0  0  0
   -5.6169  -13.6651    4.5901 C   0  0  0  0  0  0  0  0  0  0  0  0
   -5.8866  -14.6465    5.7519 N   0  0  0  0  0  0  0  0  0  0  0  0
   -7.3067  -14.3214    5.4098 C   0  0  0  0  0  0  0  0  0  0  0  0
   -5.7102  -16.0834    5.8367 C   0  0  0  0  0  0  0  0  0  0  0  0
   -5.3936  -16.8836    4.9926 O   0  0  0  0  0  0  0  0  0  0  0  0
   -5.8773  -16.5797    7.3082 C   0  0  0  0  0  0  0  0  0  0  0  0
   -6.3996  -18.0402    7.4391 C   0  0  0  0  0  0  0  0  0  0  0  0
   -6.4378  -18.5998    8.8422 C   0  0  0  0  0  0  0  0  0  0  0  0
   -5.4705  -18.7128    9.8213 C   0  0  0  0  0  0  0  0  0  0  0  0
   -6.0780  -19.4062   10.8861 C   0  0  0  0  0  0  0  0  0  0  0  0
   -7.3417  -19.7197   10.6157 N   0  0  0  0  0  0  0  0  0  0  0  0
   -7.5395  -19.2207    9.3825 N   0  0  0  0  0  0  0  0  0  0  0  0
   -8.3937   -6.6885    5.3982 C   0  0  0  0  0  0  0  0  0  0  0  0
   -9.7793   -4.1920    5.3993 H   0  0  0  0  0  0  0  0  0  0  0  0
   -8.2696   -3.9974    4.4961 H   0  0  0  0  0  0  0  0  0  0  0  0
   -8.4523   -3.2439    6.0906 H   0  0  0  0  0  0  0  0  0  0  0  0
   -8.6176   -5.4596    7.1480 H   0  0  0  0  0  0  0  0  0  0  0  0
   -6.3781   -5.0011    7.3415 H   0  0  0  0  0  0  0  0  0  0  0  0
   -6.1455   -4.7265    5.6077 H   0  0  0  0  0  0  0  0  0  0  0  0
   -5.5717   -6.8916    5.2596 H   0  0  0  0  0  0  0  0  0  0  0  0
   -5.6041   -7.1498    7.0157 H   0  0  0  0  0  0  0  0  0  0  0  0
   -8.2192   -9.4016    5.1959 H   0  0  0  0  0  0  0  0  0  0  0  0
   -6.9264   -8.6575    4.2185 H   0  0  0  0  0  0  0  0  0  0  0  0
   -6.6927  -10.9540    4.1605 H   0  0  0  0  0  0  0  0  0  0  0  0
   -4.3901  -11.9214    4.2518 H   0  0  0  0  0  0  0  0  0  0  0  0
   -4.6406  -12.2314    5.9522 H   0  0  0  0  0  0  0  0  0  0  0  0
   -4.6922  -14.1189    4.1948 H   0  0  0  0  0  0  0  0  0  0  0  0
   -6.2436  -13.6892    3.6808 H   0  0  0  0  0  0  0  0  0  0  0  0
   -7.6440  -14.7866    4.4692 H   0  0  0  0  0  0  0  0  0  0  0  0
   -7.9117  -14.8496    6.1493 H   0  0  0  0  0  0  0  0  0  0  0  0
   -7.5918  -13.2661    5.5105 H   0  0  0  0  0  0  0  0  0  0  0  0
   -6.5092  -15.8925    7.8680 H   0  0  0  0  0  0  0  0  0  0  0  0
   -4.8793  -16.5136    7.7607 H   0  0  0  0  0  0  0  0  0  0  0  0
   -5.7589  -18.7012    6.8410 H   0  0  0  0  0  0  0  0  0  0  0  0
   -7.3962  -18.1019    6.9863 H   0  0  0  0  0  0  0  0  0  0  0  0
   -4.4498  -18.3594    9.7692 H   0  0  0  0  0  0  0  0  0  0  0  0
   -5.6471  -19.7005   11.8359 H   0  0  0  0  0  0  0  0  0  0  0  0
   -8.4449  -19.3866    8.9512 H   0  0  0  0  0  0  0  0  0  0  0  0
   -8.1891   -6.5563    4.3280 H   0  0  0  0  0  0  0  0  0  0  0  0
   -9.4195   -7.0462    5.5193 H   0  0  0  0  0  0  0  0  0  0  0  0
  1  2  1  0
  2  3  1  0
  3  4  1  0
  4  5  1  0
  5  6  1  0
  6  7  1  0
  7  8  2  0
  7  9  1  0
  9 10  1  0
 10 11  1  0
 11 12  1  0
 12 13  1  0
 12 14  1  0
 14 15  2  0
 14 16  1  0
 16 17  1  0
 17 18  1  0
 18 19  2  0
 19 20  1  0
 20 21  2  0
 21 22  1  0
  5 23  1  0
 23  2  1  0
 22 18  1  0
  1 24  1  0
  1 25  1  0
  1 26  1  0
  2 27  1  0
  3 28  1  0
  3 29  1  0
  4 30  1  0
  4 31  1  0
  6 32  1  0
  6 33  1  0
  9 34  1  0
 10 35  1  0
 10 36  1  0
 11 37  1  0
 11 38  1  0
 13 39  1  0
 13 40  1  0
 13 41  1  0
 16 42  1  0
 16 43  1  0
 17 44  1  0
 17 45  1  0
 19 46  1  0
 20 47  1  0
 22 48  1  0
 23 49  1  0
 23 50  1  0
M  END
>  <Energy>  (1157) 
132.48789178823233

>  <compound_id>  (1157) 
14119

>  <target_id>  (1157) 
1

>  <reference_id>  (1157) 
30

>  <inspiration_ids>  (1157) 
[30, 127]

>  <energy_score>  (1157) 
44.495223040614405

>  <distance_score>  (1157) 
10.555833636986279

>  <path>  (1157) 
/opt/xchem-fragalysis-2/maxwin/BulkDock/SCRATCH/511023/C14119-P30/C14119-P30.minimised.mol

>  <scratch_subdir>  (1157) 
/opt/xchem-fragalysis-2/maxwin/BulkDock/SCRATCH/511023/C14119-P30

>  <fragmenstein_runtime>  (1157) 
27.220189571380615

>  <fragmenstein_outcome>  (1157) 
too moved

>  <fragmenstein_mode>  (1157) 
expansion

>  <fragmenstein_error>  (1157) 


$$$$
C14119-P127
     RDKit          3D

 50 51  0  0  0  0  0  0  0  0999 V2000
  -10.9887    0.2107    6.0009 C   0  0  0  0  0  0  0  0  0  0  0  0
  -11.9717   -0.6121    6.8121 C   0  0  0  0  0  0  0  0  0  0  0  0
  -12.7510    0.1962    7.8318 C   0  0  0  0  0  0  0  0  0  0  0  0
  -13.8768   -0.7686    8.1733 C   0  0  0  0  0  0  0  0  0  0  0  0
  -14.2493   -1.3867    6.8958 N   0  0  0  0  0  0  0  0  0  0  0  0
  -14.9162   -2.7422    6.9877 C   0  0  0  0  0  0  0  0  0  0  0  0
  -13.8480   -4.0222    7.5743 C   0  0  0  0  0  0  0  0  0  0  0  0
  -12.6965   -3.8192    7.1664 O   0  0  0  0  0  0  0  0  0  0  0  0
  -14.5211   -5.4874    8.5286 N   0  0  0  0  0  0  0  0  0  0  0  0
  -13.6267   -7.3428    9.1024 C   0  0  0  0  0  0  0  0  0  0  0  0
  -13.5212   -9.4668    9.4656 C   0  0  0  0  0  0  0  0  0  0  0  0
  -13.8833  -11.5211    9.2855 N   0  0  0  0  0  0  0  0  0  0  0  0
  -15.0885  -11.0640    9.9380 C   0  0  0  0  0  0  0  0  0  0  0  0
  -13.0321  -13.2931   10.1615 C   0  0  0  0  0  0  0  0  0  0  0  0
  -12.0894  -13.3621   11.1742 O   0  0  0  0  0  0  0  0  0  0  0  0
  -13.3442  -15.3921    9.2499 C   0  0  0  0  0  0  0  0  0  0  0  0
  -13.9093  -17.3011    9.7916 C   0  0  0  0  0  0  0  0  0  0  0  0
  -15.7150  -18.1340   10.1928 C   0  0  0  0  0  0  0  0  0  0  0  0
  -16.9671  -18.1145   11.1396 C   0  0  0  0  0  0  0  0  0  0  0  0
  -18.0026  -19.0059   10.8144 C   0  0  0  0  0  0  0  0  0  0  0  0
  -17.5132  -19.8893    9.9949 N   0  0  0  0  0  0  0  0  0  0  0  0
  -16.2106  -19.5888   10.0789 N   0  0  0  0  0  0  0  0  0  0  0  0
  -13.0896   -1.2640    5.9949 C   0  0  0  0  0  0  0  0  0  0  0  0
  -11.4930    1.0209    5.4633 H   0  0  0  0  0  0  0  0  0  0  0  0
  -10.2304    0.6587    6.6516 H   0  0  0  0  0  0  0  0  0  0  0  0
  -10.4775   -0.4167    5.2635 H   0  0  0  0  0  0  0  0  0  0  0  0
  -11.4086   -1.3948    7.3345 H   0  0  0  0  0  0  0  0  0  0  0  0
  -13.1500    1.1187    7.3929 H   0  0  0  0  0  0  0  0  0  0  0  0
  -12.1488    0.4572    8.7073 H   0  0  0  0  0  0  0  0  0  0  0  0
  -13.4727   -1.4902    8.8802 H   0  0  0  0  0  0  0  0  0  0  0  0
  -14.7248   -0.2560    8.6366 H   0  0  0  0  0  0  0  0  0  0  0  0
  -15.9638   -2.6651    7.3063 H   0  0  0  0  0  0  0  0  0  0  0  0
  -15.0730   -2.9602    5.9342 H   0  0  0  0  0  0  0  0  0  0  0  0
  -15.4975   -5.4059    8.6421 H   0  0  0  0  0  0  0  0  0  0  0  0
  -13.9277   -7.4335   10.1950 H   0  0  0  0  0  0  0  0  0  0  0  0
  -12.9269   -6.9229    9.8381 H   0  0  0  0  0  0  0  0  0  0  0  0
  -12.4326   -9.4992    9.4248 H   0  0  0  0  0  0  0  0  0  0  0  0
  -13.8611   -9.4535    8.4126 H   0  0  0  0  0  0  0  0  0  0  0  0
  -15.9756  -11.6006   10.3815 H   0  0  0  0  0  0  0  0  0  0  0  0
  -15.3862  -11.1782    8.9179 H   0  0  0  0  0  0  0  0  0  0  0  0
  -15.2120  -10.0617   10.1481 H   0  0  0  0  0  0  0  0  0  0  0  0
  -14.0724  -16.1067    8.7992 H   0  0  0  0  0  0  0  0  0  0  0  0
  -12.7015  -15.8429    8.4065 H   0  0  0  0  0  0  0  0  0  0  0  0
  -13.1548  -17.1206   10.5094 H   0  0  0  0  0  0  0  0  0  0  0  0
  -13.2908  -18.0539    9.3391 H   0  0  0  0  0  0  0  0  0  0  0  0
  -17.2413  -17.4237   11.9316 H   0  0  0  0  0  0  0  0  0  0  0  0
  -19.0201  -19.0566   11.1761 H   0  0  0  0  0  0  0  0  0  0  0  0
  -15.6460  -20.3099    9.6632 H   0  0  0  0  0  0  0  0  0  0  0  0
  -12.7492   -2.1923    5.5338 H   0  0  0  0  0  0  0  0  0  0  0  0
  -13.3877   -0.6058    5.1693 H   0  0  0  0  0  0  0  0  0  0  0  0
  1  2  1  0
  2  3  1  0
  3  4  1  0
  4  5  1  0
  5  6  1  0
  6  7  1  0
  7  8  2  0
  7  9  1  0
  9 10  1  0
 10 11  1  0
 11 12  1  0
 12 13  1  0
 12 14  1  0
 14 15  2  0
 14 16  1  0
 16 17  1  0
 17 18  1  0
 18 19  2  0
 19 20  1  0
 20 21  2  0
 21 22  1  0
  5 23  1  0
 23  2  1  0
 22 18  1  0
  1 24  1  0
  1 25  1  0
  1 26  1  0
  2 27  1  0
  3 28  1  0
  3 29  1  0
  4 30  1  0
  4 31  1  0
  6 32  1  0
  6 33  1  0
  9 34  1  0
 10 35  1  0
 10 36  1  0
 11 37  1  0
 11 38  1  0
 13 39  1  0
 13 40  1  0
 13 41  1  0
 16 42  1  0
 16 43  1  0
 17 44  1  0
 17 45  1  0
 19 46  1  0
 20 47  1  0
 22 48  1  0
 23 49  1  0
 23 50  1  0
M  END
>  <Energy>  (1158) 
1568.3582692993234

>  <compound_id>  (1158) 
14119

>  <target_id>  (1158) 
1

>  <reference_id>  (1158) 
127

>  <inspiration_ids>  (1158) 
[30, 127]

>  <energy_score>  (1158) 
1480.3656005517319

>  <distance_score>  (1158) 
6.65351315405027

>  <path>  (1158) 
/opt/xchem-fragalysis-2/maxwin/BulkDock/SCRATCH/511023/C14119-P127/C14119-P127.minimised.mol

>  <scratch_subdir>  (1158) 
/opt/xchem-fragalysis-2/maxwin/BulkDock/SCRATCH/511023/C14119-P127

>  <fragmenstein_runtime>  (1158) 
17.754631757736206

>  <fragmenstein_outcome>  (1158) 
too moved

>  <fragmenstein_mode>  (1158) 
expansion

>  <fragmenstein_error>  (1158) 


$$$$
C47060-P30
     RDKit          3D

 47 49  0  0  0  0  0  0  0  0999 V2000
   -8.1385  -20.0408   11.4400 O   0  0  0  0  0  0  0  0  0  0  0  0
   -7.2914  -20.7425   11.8863 C   0  0  0  0  0  0  0  0  0  0  0  0
   -5.7396  -20.1479   11.6198 C   0  0  0  0  0  0  0  0  0  0  0  0
   -5.4886  -18.5758   11.8008 C   0  0  0  0  0  0  0  0  0  0  0  0
   -4.4828  -17.7106   10.9277 C   0  0  0  0  0  0  0  0  0  0  0  0
   -3.2077  -17.4813   11.4239 N   0  0  0  0  0  0  0  0  0  0  0  0
   -2.4291  -16.6514   10.7052 N   0  0  0  0  0  0  0  0  0  0  0  0
   -3.1996  -16.2993    9.6834 C   0  0  0  0  0  0  0  0  0  0  0  0
   -4.5197  -16.8274    9.8168 C   0  0  0  0  0  0  0  0  0  0  0  0
   -5.5645  -16.3822    8.8389 C   0  0  0  0  0  0  0  0  0  0  0  0
   -5.0930  -15.3324    7.8140 C   0  0  0  0  0  0  0  0  0  0  0  0
   -3.6520  -15.4993    7.3581 C   0  0  0  0  0  0  0  0  0  0  0  0
   -2.6996  -15.4473    8.5545 C   0  0  0  0  0  0  0  0  0  0  0  0
   -7.3916  -22.0080   12.5743 N   0  0  0  0  0  0  0  0  0  0  0  0
   -8.6203  -22.8067   13.0431 C   0  0  0  0  0  0  0  0  0  0  0  0
  -10.0008  -22.4030   12.7091 C   0  0  0  0  0  0  0  0  0  0  0  0
  -10.7646  -23.7205   12.8684 C   0  0  0  0  0  0  0  0  0  0  0  0
   -9.9722  -24.9221   13.3448 N   0  0  0  0  0  0  0  0  0  0  0  0
  -10.7141  -26.1247   13.1249 C   0  0  0  0  0  0  0  0  0  0  0  0
  -10.7338  -26.8694   12.1797 O   0  0  0  0  0  0  0  0  0  0  0  0
  -11.5925  -26.4399   14.3547 C   0  0  0  0  0  0  0  0  0  0  0  0
  -11.0876  -26.0001   15.6019 O   0  0  0  0  0  0  0  0  0  0  0  0
   -8.9168  -24.2730   12.5302 C   0  0  0  0  0  0  0  0  0  0  0  0
   -5.0366  -20.6921   12.2509 H   0  0  0  0  0  0  0  0  0  0  0  0
   -5.4387  -20.4152   10.6106 H   0  0  0  0  0  0  0  0  0  0  0  0
   -5.0932  -18.4782   12.8219 H   0  0  0  0  0  0  0  0  0  0  0  0
   -6.4015  -18.0014   11.8638 H   0  0  0  0  0  0  0  0  0  0  0  0
   -2.8089  -17.8769   12.2673 H   0  0  0  0  0  0  0  0  0  0  0  0
   -5.9186  -17.2602    8.2874 H   0  0  0  0  0  0  0  0  0  0  0  0
   -6.3862  -15.9176    9.3883 H   0  0  0  0  0  0  0  0  0  0  0  0
   -5.7700  -15.3420    6.9540 H   0  0  0  0  0  0  0  0  0  0  0  0
   -5.1604  -14.3520    8.2719 H   0  0  0  0  0  0  0  0  0  0  0  0
   -3.3857  -14.7188    6.6365 H   0  0  0  0  0  0  0  0  0  0  0  0
   -3.5472  -16.4630    6.8440 H   0  0  0  0  0  0  0  0  0  0  0  0
   -2.5792  -14.4119    8.8692 H   0  0  0  0  0  0  0  0  0  0  0  0
   -1.7095  -15.7973    8.2386 H   0  0  0  0  0  0  0  0  0  0  0  0
   -6.4689  -22.2860   12.8893 H   0  0  0  0  0  0  0  0  0  0  0  0
   -8.5992  -22.7093   14.1378 H   0  0  0  0  0  0  0  0  0  0  0  0
  -10.3908  -21.6068   13.3399 H   0  0  0  0  0  0  0  0  0  0  0  0
  -10.0445  -22.1333   11.6635 H   0  0  0  0  0  0  0  0  0  0  0  0
  -11.2950  -23.9789   11.9357 H   0  0  0  0  0  0  0  0  0  0  0  0
  -11.5731  -23.5972   13.5942 H   0  0  0  0  0  0  0  0  0  0  0  0
  -12.5779  -25.9910   14.1986 H   0  0  0  0  0  0  0  0  0  0  0  0
  -11.7119  -27.5265   14.4144 H   0  0  0  0  0  0  0  0  0  0  0  0
  -10.1180  -26.1002   15.5371 H   0  0  0  0  0  0  0  0  0  0  0  0
   -8.0383  -24.9228   12.5461 H   0  0  0  0  0  0  0  0  0  0  0  0
   -9.2135  -24.4354   11.4789 H   0  0  0  0  0  0  0  0  0  0  0  0
  1  2  2  0
  2  3  1  0
  3  4  1  0
  4  5  1  0
  5  6  1  0
  6  7  1  0
  7  8  2  0
  8  9  1  0
  9 10  1  0
 10 11  1  0
 11 12  1  0
 12 13  1  0
  2 14  1  0
 14 15  1  0
 15 16  1  0
 16 17  1  0
 17 18  1  0
 18 19  1  0
 19 20  2  0
 19 21  1  0
 21 22  1  0
 18 23  1  0
  9  5  2  0
 23 15  1  0
 13  8  1  0
  3 24  1  0
  3 25  1  0
  4 26  1  0
  4 27  1  0
  6 28  1  0
 10 29  1  0
 10 30  1  0
 11 31  1  0
 11 32  1  0
 12 33  1  0
 12 34  1  0
 13 35  1  0
 13 36  1  0
 14 37  1  0
 15 38  1  0
 16 39  1  0
 16 40  1  0
 17 41  1  0
 17 42  1  0
 21 43  1  0
 21 44  1  0
 22 45  1  0
 23 46  1  0
 23 47  1  0
M  END
>  <Energy>  (1159) 
146.13614898034422

>  <compound_id>  (1159) 
47060

>  <target_id>  (1159) 
1

>  <reference_id>  (1159) 
30

>  <inspiration_ids>  (1159) 
[30, 127]

>  <energy_score>  (1159) 
78.78574659588054

>  <distance_score>  (1159) 
10.247762399567499

>  <path>  (1159) 
/opt/xchem-fragalysis-2/maxwin/BulkDock/SCRATCH/511023/C47060-P30/C47060-P30.minimised.mol

>  <scratch_subdir>  (1159) 
/opt/xchem-fragalysis-2/maxwin/BulkDock/SCRATCH/511023/C47060-P30

>  <fragmenstein_runtime>  (1159) 
17.016285181045532

>  <fragmenstein_outcome>  (1159) 
too moved

>  <fragmenstein_mode>  (1159) 
expansion

>  <fragmenstein_error>  (1159) 


$$$$
C47060-P127
     RDKit          3D

 47 49  0  0  0  0  0  0  0  0999 V2000
  -12.8046  -13.0821   10.2100 O   0  0  0  0  0  0  0  0  0  0  0  0
  -13.1901  -13.9863    9.5277 C   0  0  0  0  0  0  0  0  0  0  0  0
  -12.3811  -14.4702    8.3156 C   0  0  0  0  0  0  0  0  0  0  0  0
  -11.0915  -13.6960    8.0650 C   0  0  0  0  0  0  0  0  0  0  0  0
  -11.3220  -12.2838    7.5829 C   0  0  0  0  0  0  0  0  0  0  0  0
  -11.5246  -11.2601    8.4790 N   0  0  0  0  0  0  0  0  0  0  0  0
  -11.6213  -10.0450    7.9184 N   0  0  0  0  0  0  0  0  0  0  0  0
  -11.5059  -10.2932    6.6159 C   0  0  0  0  0  0  0  0  0  0  0  0
  -11.3736  -11.6716    6.3440 C   0  0  0  0  0  0  0  0  0  0  0  0
  -11.3406  -12.1924    4.9568 C   0  0  0  0  0  0  0  0  0  0  0  0
  -12.0023  -11.1934    3.9853 C   0  0  0  0  0  0  0  0  0  0  0  0
  -11.4678   -9.7688    4.1549 C   0  0  0  0  0  0  0  0  0  0  0  0
  -11.6318   -9.2405    5.5798 C   0  0  0  0  0  0  0  0  0  0  0  0
  -14.3997  -14.7610    9.5924 N   0  0  0  0  0  0  0  0  0  0  0  0
  -15.5651  -14.6287   10.4367 C   0  0  0  0  0  0  0  0  0  0  0  0
  -16.4159  -15.8541   10.5368 C   0  0  0  0  0  0  0  0  0  0  0  0
  -17.6553  -15.3279    9.8477 C   0  0  0  0  0  0  0  0  0  0  0  0
  -17.9899  -13.9385   10.3318 N   0  0  0  0  0  0  0  0  0  0  0  0
  -19.2510  -13.5250    9.8138 C   0  0  0  0  0  0  0  0  0  0  0  0
  -19.5257  -12.9309    8.8024 O   0  0  0  0  0  0  0  0  0  0  0  0
  -20.3682  -13.8958   10.8061 C   0  0  0  0  0  0  0  0  0  0  0  0
  -21.6221  -14.0310   10.1504 O   0  0  0  0  0  0  0  0  0  0  0  0
  -16.5945  -13.6733    9.8446 C   0  0  0  0  0  0  0  0  0  0  0  0
  -13.0201  -14.4229    7.4251 H   0  0  0  0  0  0  0  0  0  0  0  0
  -12.1200  -15.5191    8.5009 H   0  0  0  0  0  0  0  0  0  0  0  0
  -10.5045  -14.2241    7.3034 H   0  0  0  0  0  0  0  0  0  0  0  0
  -10.4785  -13.6756    8.9746 H   0  0  0  0  0  0  0  0  0  0  0  0
  -11.6196  -11.3489    9.4877 H   0  0  0  0  0  0  0  0  0  0  0  0
  -11.8705  -13.1503    4.9009 H   0  0  0  0  0  0  0  0  0  0  0  0
  -10.3101  -12.3787    4.6455 H   0  0  0  0  0  0  0  0  0  0  0  0
  -11.8404  -11.5301    2.9549 H   0  0  0  0  0  0  0  0  0  0  0  0
  -13.0876  -11.1890    4.1511 H   0  0  0  0  0  0  0  0  0  0  0  0
  -11.9654   -9.0909    3.4518 H   0  0  0  0  0  0  0  0  0  0  0  0
  -10.4140   -9.7707    3.8780 H   0  0  0  0  0  0  0  0  0  0  0  0
  -12.6297   -8.7982    5.6723 H   0  0  0  0  0  0  0  0  0  0  0  0
  -10.8747   -8.4794    5.7502 H   0  0  0  0  0  0  0  0  0  0  0  0
  -14.4296  -15.3953    8.7978 H   0  0  0  0  0  0  0  0  0  0  0  0
  -15.2354  -14.2844   11.4231 H   0  0  0  0  0  0  0  0  0  0  0  0
  -16.6513  -16.0778   11.5837 H   0  0  0  0  0  0  0  0  0  0  0  0
  -16.0122  -16.7533   10.0715 H   0  0  0  0  0  0  0  0  0  0  0  0
  -17.6262  -15.3904    8.7454 H   0  0  0  0  0  0  0  0  0  0  0  0
  -18.4998  -15.9750   10.1222 H   0  0  0  0  0  0  0  0  0  0  0  0
  -20.1490  -14.8357   11.3189 H   0  0  0  0  0  0  0  0  0  0  0  0
  -20.4476  -13.0963   11.5491 H   0  0  0  0  0  0  0  0  0  0  0  0
  -21.6246  -13.3441    9.4536 H   0  0  0  0  0  0  0  0  0  0  0  0
  -16.5695  -13.5919    8.7437 H   0  0  0  0  0  0  0  0  0  0  0  0
  -16.3646  -12.6519   10.1784 H   0  0  0  0  0  0  0  0  0  0  0  0
  1  2  2  0
  2  3  1  0
  3  4  1  0
  4  5  1  0
  5  6  1  0
  6  7  1  0
  7  8  2  0
  8  9  1  0
  9 10  1  0
 10 11  1  0
 11 12  1  0
 12 13  1  0
  2 14  1  0
 14 15  1  0
 15 16  1  0
 16 17  1  0
 17 18  1  0
 18 19  1  0
 19 20  2  0
 19 21  1  0
 21 22  1  0
 18 23  1  0
  9  5  2  0
 23 15  1  0
 13  8  1  0
  3 24  1  0
  3 25  1  0
  4 26  1  0
  4 27  1  0
  6 28  1  0
 10 29  1  0
 10 30  1  0
 11 31  1  0
 11 32  1  0
 12 33  1  0
 12 34  1  0
 13 35  1  0
 13 36  1  0
 14 37  1  0
 15 38  1  0
 16 39  1  0
 16 40  1  0
 17 41  1  0
 17 42  1  0
 21 43  1  0
 21 44  1  0
 22 45  1  0
 23 46  1  0
 23 47  1  0
M  END
>  <Energy>  (1160) 
88.309962218177532

>  <compound_id>  (1160) 
47060

>  <target_id>  (1160) 
1

>  <reference_id>  (1160) 
127

>  <inspiration_ids>  (1160) 
[30, 127]

>  <energy_score>  (1160) 
20.95955983371755

>  <distance_score>  (1160) 
12.273653748245117

>  <path>  (1160) 
/opt/xchem-fragalysis-2/maxwin/BulkDock/SCRATCH/511023/C47060-P127/C47060-P127.minimised.mol

>  <scratch_subdir>  (1160) 
/opt/xchem-fragalysis-2/maxwin/BulkDock/SCRATCH/511023/C47060-P127

>  <fragmenstein_runtime>  (1160) 
24.207691192626953

>  <fragmenstein_outcome>  (1160) 
too moved

>  <fragmenstein_mode>  (1160) 
expansion

>  <fragmenstein_error>  (1160) 


$$$$
C47071-P40
     RDKit          3D

 22 24  0  0  0  0  0  0  0  0999 V2000
    2.8486   -4.8965   27.4932 C   0  0  0  0  0  0  0  0  0  0  0  0
    3.3675   -4.4416   28.6801 C   0  0  0  0  0  0  0  0  0  0  0  0
    2.4518   -4.7601   29.7163 C   0  0  0  0  0  0  0  0  0  0  0  0
    2.4142   -4.5353   31.0996 C   0  0  0  0  0  0  0  0  0  0  0  0
    1.4040   -5.1103   31.8743 C   0  0  0  0  0  0  0  0  0  0  0  0
    0.4377   -5.9185   31.2855 C   0  0  0  0  0  0  0  0  0  0  0  0
   -0.4666   -6.7105   32.0811 C   0  0  0  0  0  0  0  0  0  0  0  0
   -0.6279   -6.6448   33.4453 C   0  0  0  0  0  0  0  0  0  0  0  0
   -1.4977   -7.6140   33.8007 O   0  0  0  0  0  0  0  0  0  0  0  0
   -1.8058   -8.2046   32.6184 C   0  0  0  0  0  0  0  0  0  0  0  0
   -1.2409   -7.7102   31.5485 N   0  0  0  0  0  0  0  0  0  0  0  0
    0.4022   -6.0565   29.8926 C   0  0  0  0  0  0  0  0  0  0  0  0
    1.4142   -5.4662   29.1359 C   0  0  0  0  0  0  0  0  0  0  0  0
    1.6332   -5.4278   27.7857 N   0  0  0  0  0  0  0  0  0  0  0  0
    3.2284   -4.8402   26.4814 H   0  0  0  0  0  0  0  0  0  0  0  0
    4.3081   -3.9166   28.7925 H   0  0  0  0  0  0  0  0  0  0  0  0
    3.1962   -3.9497   31.5772 H   0  0  0  0  0  0  0  0  0  0  0  0
    1.4441   -4.9542   32.9491 H   0  0  0  0  0  0  0  0  0  0  0  0
   -0.2344   -6.0359   34.2459 H   0  0  0  0  0  0  0  0  0  0  0  0
   -2.5205   -9.0011   32.6679 H   0  0  0  0  0  0  0  0  0  0  0  0
   -0.3541   -6.6872   29.4432 H   0  0  0  0  0  0  0  0  0  0  0  0
    0.9630   -5.7343   27.1036 H   0  0  0  0  0  0  0  0  0  0  0  0
  1  2  2  0
  2  3  1  0
  3  4  2  0
  4  5  1  0
  5  6  2  0
  6  7  1  0
  7  8  2  0
  8  9  1  0
  9 10  1  0
 10 11  2  0
  6 12  1  0
 12 13  2  0
 13 14  1  0
 14  1  1  0
 13  3  1  0
 11  7  1  0
  1 15  1  0
  2 16  1  0
  4 17  1  0
  5 18  1  0
  8 19  1  0
 10 20  1  0
 12 21  1  0
 14 22  1  0
M  END
>  <Energy>  (1161) 
30.554818995767064

>  <compound_id>  (1161) 
47071

>  <target_id>  (1161) 
1

>  <reference_id>  (1161) 
40

>  <inspiration_ids>  (1161) 
[40, 56]

>  <energy_score>  (1161) 
-16.480114199679832

>  <distance_score>  (1161) 
2.100923167222081

>  <path>  (1161) 
/opt/xchem-fragalysis-2/maxwin/BulkDock/SCRATCH/511023/C47071-P40/C47071-P40.minimised.mol

>  <scratch_subdir>  (1161) 
/opt/xchem-fragalysis-2/maxwin/BulkDock/SCRATCH/511023/C47071-P40

>  <fragmenstein_runtime>  (1161) 
1.1019132137298584

>  <fragmenstein_outcome>  (1161) 
too moved

>  <fragmenstein_mode>  (1161) 
expansion

>  <fragmenstein_error>  (1161) 


$$$$
C47071-P56
     RDKit          3D

 22 24  0  0  0  0  0  0  0  0999 V2000
    0.6693   -3.8347   28.2350 C   0  0  0  0  0  0  0  0  0  0  0  0
    0.0975   -5.0396   27.9131 C   0  0  0  0  0  0  0  0  0  0  0  0
   -0.1125   -5.7481   29.1052 C   0  0  0  0  0  0  0  0  0  0  0  0
   -0.5348   -7.0511   29.3488 C   0  0  0  0  0  0  0  0  0  0  0  0
   -0.6791   -7.4514   30.6623 C   0  0  0  0  0  0  0  0  0  0  0  0
   -0.4420   -6.5831   31.7223 C   0  0  0  0  0  0  0  0  0  0  0  0
   -0.7513   -7.1125   33.0247 C   0  0  0  0  0  0  0  0  0  0  0  0
   -0.1684   -6.7769   34.2178 C   0  0  0  0  0  0  0  0  0  0  0  0
   -0.7044   -7.5737   35.1778 O   0  0  0  0  0  0  0  0  0  0  0  0
   -1.6095   -8.3306   34.5041 C   0  0  0  0  0  0  0  0  0  0  0  0
   -1.6769   -8.1154   33.2135 N   0  0  0  0  0  0  0  0  0  0  0  0
    0.0604   -5.2895   31.4936 C   0  0  0  0  0  0  0  0  0  0  0  0
    0.2347   -4.9102   30.1584 C   0  0  0  0  0  0  0  0  0  0  0  0
    0.7300   -3.7559   29.5988 N   0  0  0  0  0  0  0  0  0  0  0  0
    1.0283   -3.0152   27.6245 H   0  0  0  0  0  0  0  0  0  0  0  0
   -0.0781   -5.4503   26.9338 H   0  0  0  0  0  0  0  0  0  0  0  0
   -0.6933   -7.7442   28.5345 H   0  0  0  0  0  0  0  0  0  0  0  0
   -0.9456   -8.4841   30.8704 H   0  0  0  0  0  0  0  0  0  0  0  0
    0.5988   -6.0861   34.5348 H   0  0  0  0  0  0  0  0  0  0  0  0
   -2.1747   -9.0404   35.0911 H   0  0  0  0  0  0  0  0  0  0  0  0
    0.2884   -4.6120   32.3089 H   0  0  0  0  0  0  0  0  0  0  0  0
    1.0775   -2.9628   30.1207 H   0  0  0  0  0  0  0  0  0  0  0  0
  1  2  2  0
  2  3  1  0
  3  4  2  0
  4  5  1  0
  5  6  2  0
  6  7  1  0
  7  8  2  0
  8  9  1  0
  9 10  1  0
 10 11  2  0
  6 12  1  0
 12 13  2  0
 13 14  1  0
 14  1  1  0
 13  3  1  0
 11  7  1  0
  1 15  1  0
  2 16  1  0
  4 17  1  0
  5 18  1  0
  8 19  1  0
 10 20  1  0
 12 21  1  0
 14 22  1  0
M  END
>  <Energy>  (1162) 
31.343047699822073

>  <compound_id>  (1162) 
47071

>  <target_id>  (1162) 
1

>  <reference_id>  (1162) 
56

>  <inspiration_ids>  (1162) 
[40, 56]

>  <energy_score>  (1162) 
-15.691885495623467

>  <distance_score>  (1162) 
2.208416883250617

>  <path>  (1162) 
/opt/xchem-fragalysis-2/maxwin/BulkDock/SCRATCH/511023/C47071-P56/C47071-P56.minimised.mol

>  <scratch_subdir>  (1162) 
/opt/xchem-fragalysis-2/maxwin/BulkDock/SCRATCH/511023/C47071-P56

>  <fragmenstein_runtime>  (1162) 
1.422466516494751

>  <fragmenstein_outcome>  (1162) 
too moved

>  <fragmenstein_mode>  (1162) 
expansion

>  <fragmenstein_error>  (1162) 


$$$$
C47073-P40
     RDKit          3D

 32 35  0  0  0  0  0  0  0  0999 V2000
   -1.0659   -3.4505   30.7152 C   0  0  0  0  0  0  0  0  0  0  0  0
   -0.4519   -4.1019   31.7689 C   0  0  0  0  0  0  0  0  0  0  0  0
    0.8047   -4.7297   31.6171 C   0  0  0  0  0  0  0  0  0  0  0  0
    1.5014   -4.9918   32.8900 C   0  0  0  0  0  0  0  0  0  0  0  0
    1.0578   -5.8259   33.8146 N   0  0  0  0  0  0  0  0  0  0  0  0
    1.2786   -5.2920   35.0750 C   0  0  0  0  0  0  0  0  0  0  0  0
    2.0550   -4.1559   35.1212 C   0  0  0  0  0  0  0  0  0  0  0  0
    2.5296   -3.7432   33.5348 S   0  0  0  0  0  0  0  0  0  0  0  0
    2.3086   -3.3269   36.3430 C   0  0  0  0  0  0  0  0  0  0  0  0
    1.7517   -4.0146   37.6074 C   0  0  0  0  0  0  0  0  0  0  0  0
    0.4314   -4.7608   37.3537 C   0  0  0  0  0  0  0  0  0  0  0  0
    0.6057   -5.8491   36.2809 C   0  0  0  0  0  0  0  0  0  0  0  0
    1.3628   -4.8355   30.3125 C   0  0  0  0  0  0  0  0  0  0  0  0
    2.5213   -5.3845   29.6848 C   0  0  0  0  0  0  0  0  0  0  0  0
    2.5204   -5.0774   28.3422 C   0  0  0  0  0  0  0  0  0  0  0  0
    1.4677   -4.2443   28.1499 N   0  0  0  0  0  0  0  0  0  0  0  0
    0.6959   -4.1678   29.2799 C   0  0  0  0  0  0  0  0  0  0  0  0
   -0.4898   -3.4567   29.4535 C   0  0  0  0  0  0  0  0  0  0  0  0
   -1.9846   -2.8914   30.8795 H   0  0  0  0  0  0  0  0  0  0  0  0
   -0.8945   -4.0177   32.7633 H   0  0  0  0  0  0  0  0  0  0  0  0
    3.3798   -3.1340   36.4673 H   0  0  0  0  0  0  0  0  0  0  0  0
    1.8096   -2.3578   36.2189 H   0  0  0  0  0  0  0  0  0  0  0  0
    1.6182   -3.2692   38.3996 H   0  0  0  0  0  0  0  0  0  0  0  0
    2.4941   -4.7351   37.9753 H   0  0  0  0  0  0  0  0  0  0  0  0
   -0.3343   -4.0422   37.0343 H   0  0  0  0  0  0  0  0  0  0  0  0
    0.0768   -5.2186   38.2840 H   0  0  0  0  0  0  0  0  0  0  0  0
    1.2122   -6.6708   36.6794 H   0  0  0  0  0  0  0  0  0  0  0  0
   -0.3742   -6.2608   36.0144 H   0  0  0  0  0  0  0  0  0  0  0  0
    3.3314   -5.9075   30.1497 H   0  0  0  0  0  0  0  0  0  0  0  0
    3.2411   -5.2802   27.5605 H   0  0  0  0  0  0  0  0  0  0  0  0
    1.2970   -3.6731   27.3408 H   0  0  0  0  0  0  0  0  0  0  0  0
   -0.9586   -2.9184   28.6313 H   0  0  0  0  0  0  0  0  0  0  0  0
  1  2  2  0
  2  3  1  0
  3  4  1  0
  4  5  2  0
  5  6  1  0
  6  7  2  0
  7  8  1  0
  7  9  1  0
  9 10  1  0
 10 11  1  0
 11 12  1  0
  3 13  2  0
 13 14  1  0
 14 15  2  0
 15 16  1  0
 16 17  1  0
 17 18  2  0
 18  1  1  0
  8  4  1  0
 17 13  1  0
 12  6  1  0
  1 19  1  0
  2 20  1  0
  9 21  1  0
  9 22  1  0
 10 23  1  0
 10 24  1  0
 11 25  1  0
 11 26  1  0
 12 27  1  0
 12 28  1  0
 14 29  1  0
 15 30  1  0
 16 31  1  0
 18 32  1  0
M  END
>  <Energy>  (1163) 
63.148055993183256

>  <compound_id>  (1163) 
47073

>  <target_id>  (1163) 
1

>  <reference_id>  (1163) 
40

>  <inspiration_ids>  (1163) 
[40, 56]

>  <energy_score>  (1163) 
-28.31866932613636

>  <distance_score>  (1163) 
2.0649389721469684

>  <path>  (1163) 
/opt/xchem-fragalysis-2/maxwin/BulkDock/SCRATCH/511023/C47073-P40/C47073-P40.minimised.mol

>  <scratch_subdir>  (1163) 
/opt/xchem-fragalysis-2/maxwin/BulkDock/SCRATCH/511023/C47073-P40

>  <fragmenstein_runtime>  (1163) 
2.436999797821045

>  <fragmenstein_outcome>  (1163) 
too moved

>  <fragmenstein_mode>  (1163) 
expansion

>  <fragmenstein_error>  (1163) 


$$$$
C47073-P56
     RDKit          3D

 32 35  0  0  0  0  0  0  0  0999 V2000
    0.8310   -2.4910   30.0043 C   0  0  0  0  0  0  0  0  0  0  0  0
    1.0195   -2.9829   31.2854 C   0  0  0  0  0  0  0  0  0  0  0  0
    0.8409   -4.3412   31.6254 C   0  0  0  0  0  0  0  0  0  0  0  0
    1.0513   -4.7102   33.0441 C   0  0  0  0  0  0  0  0  0  0  0  0
    0.1672   -5.2447   33.8652 N   0  0  0  0  0  0  0  0  0  0  0  0
    0.4602   -4.8749   35.1721 C   0  0  0  0  0  0  0  0  0  0  0  0
    1.5945   -4.1171   35.3498 C   0  0  0  0  0  0  0  0  0  0  0  0
    2.4515   -4.0745   33.8848 S   0  0  0  0  0  0  0  0  0  0  0  0
    1.9598   -3.3640   36.5885 C   0  0  0  0  0  0  0  0  0  0  0  0
    0.9988   -3.6769   37.7538 C   0  0  0  0  0  0  0  0  0  0  0  0
   -0.4367   -4.0002   37.3094 C   0  0  0  0  0  0  0  0  0  0  0  0
   -0.4741   -5.1488   36.2913 C   0  0  0  0  0  0  0  0  0  0  0  0
    0.3739   -5.1990   30.5971 C   0  0  0  0  0  0  0  0  0  0  0  0
    0.0068   -6.5684   30.4860 C   0  0  0  0  0  0  0  0  0  0  0  0
   -0.3528   -6.8272   29.1788 C   0  0  0  0  0  0  0  0  0  0  0  0
   -0.2679   -5.6589   28.4868 N   0  0  0  0  0  0  0  0  0  0  0  0
    0.1876   -4.6614   29.3117 C   0  0  0  0  0  0  0  0  0  0  0  0
    0.4265   -3.3300   28.9855 C   0  0  0  0  0  0  0  0  0  0  0  0
    0.9999   -1.4364   29.7983 H   0  0  0  0  0  0  0  0  0  0  0  0
    1.3097   -2.2623   32.0496 H   0  0  0  0  0  0  0  0  0  0  0  0
    2.9948   -3.5535   36.8825 H   0  0  0  0  0  0  0  0  0  0  0  0
    1.8869   -2.2916   36.3649 H   0  0  0  0  0  0  0  0  0  0  0  0
    0.9914   -2.8327   38.4533 H   0  0  0  0  0  0  0  0  0  0  0  0
    1.3773   -4.5303   38.3198 H   0  0  0  0  0  0  0  0  0  0  0  0
   -0.8852   -3.1010   36.8675 H   0  0  0  0  0  0  0  0  0  0  0  0
   -1.0435   -4.2650   38.1828 H   0  0  0  0  0  0  0  0  0  0  0  0
   -0.1833   -6.0862   36.7777 H   0  0  0  0  0  0  0  0  0  0  0  0
   -1.4937   -5.2836   35.9248 H   0  0  0  0  0  0  0  0  0  0  0  0
    0.0562   -7.2976   31.2864 H   0  0  0  0  0  0  0  0  0  0  0  0
   -0.6248   -7.7525   28.6961 H   0  0  0  0  0  0  0  0  0  0  0  0
   -0.4720   -5.5364   27.5062 H   0  0  0  0  0  0  0  0  0  0  0  0
    0.2754   -2.9437   27.9825 H   0  0  0  0  0  0  0  0  0  0  0  0
  1  2  2  0
  2  3  1  0
  3  4  1  0
  4  5  2  0
  5  6  1  0
  6  7  2  0
  7  8  1  0
  7  9  1  0
  9 10  1  0
 10 11  1  0
 11 12  1  0
  3 13  2  0
 13 14  1  0
 14 15  2  0
 15 16  1  0
 16 17  1  0
 17 18  2  0
 18  1  1  0
  8  4  1  0
 17 13  1  0
 12  6  1  0
  1 19  1  0
  2 20  1  0
  9 21  1  0
  9 22  1  0
 10 23  1  0
 10 24  1  0
 11 25  1  0
 11 26  1  0
 12 27  1  0
 12 28  1  0
 14 29  1  0
 15 30  1  0
 16 31  1  0
 18 32  1  0
M  END
>  <Energy>  (1164) 
57.362768650883389

>  <compound_id>  (1164) 
47073

>  <target_id>  (1164) 
1

>  <reference_id>  (1164) 
56

>  <inspiration_ids>  (1164) 
[40, 56]

>  <energy_score>  (1164) 
-34.10395666843597

>  <distance_score>  (1164) 
2.3958143716764124

>  <path>  (1164) 
/opt/xchem-fragalysis-2/maxwin/BulkDock/SCRATCH/511023/C47073-P56/C47073-P56.minimised.mol

>  <scratch_subdir>  (1164) 
/opt/xchem-fragalysis-2/maxwin/BulkDock/SCRATCH/511023/C47073-P56

>  <fragmenstein_runtime>  (1164) 
2.699514865875244

>  <fragmenstein_outcome>  (1164) 
too moved

>  <fragmenstein_mode>  (1164) 
expansion

>  <fragmenstein_error>  (1164) 


$$$$
C47075-P40
     RDKit          3D

 33 36  0  0  0  0  0  0  0  0999 V2000
    2.0959   -5.3008   27.6687 C   0  0  0  0  0  0  0  0  0  0  0  0
    1.6376   -6.2792   28.5209 C   0  0  0  0  0  0  0  0  0  0  0  0
    1.0687   -5.6528   29.6601 C   0  0  0  0  0  0  0  0  0  0  0  0
    0.5351   -6.1086   30.8870 C   0  0  0  0  0  0  0  0  0  0  0  0
    0.2086   -5.1818   31.8962 C   0  0  0  0  0  0  0  0  0  0  0  0
   -0.1098   -5.6486   33.2432 C   0  0  0  0  0  0  0  0  0  0  0  0
   -0.7424   -6.8537   33.6406 C   0  0  0  0  0  0  0  0  0  0  0  0
   -0.8575   -6.9705   34.9631 N   0  0  0  0  0  0  0  0  0  0  0  0
   -0.2944   -5.8468   35.4264 N   0  0  0  0  0  0  0  0  0  0  0  0
    0.2165   -5.0289   34.4521 C   0  0  0  0  0  0  0  0  0  0  0  0
    0.9198   -3.7578   34.8535 C   0  0  0  0  0  0  0  0  0  0  0  0
    1.3069   -3.7131   36.3387 C   0  0  0  0  0  0  0  0  0  0  0  0
    0.1602   -4.1990   37.2131 C   0  0  0  0  0  0  0  0  0  0  0  0
   -0.1751   -5.6389   36.8565 C   0  0  0  0  0  0  0  0  0  0  0  0
    0.2345   -3.8189   31.5919 C   0  0  0  0  0  0  0  0  0  0  0  0
    0.6856   -3.3441   30.3543 C   0  0  0  0  0  0  0  0  0  0  0  0
    1.1446   -4.2830   29.4316 C   0  0  0  0  0  0  0  0  0  0  0  0
    1.7389   -4.0933   28.2049 N   0  0  0  0  0  0  0  0  0  0  0  0
    2.6306   -5.3597   26.7297 H   0  0  0  0  0  0  0  0  0  0  0  0
    1.7366   -7.3318   28.3431 H   0  0  0  0  0  0  0  0  0  0  0  0
    0.4751   -7.1741   31.0834 H   0  0  0  0  0  0  0  0  0  0  0  0
   -1.1334   -7.6495   33.0202 H   0  0  0  0  0  0  0  0  0  0  0  0
    1.8191   -3.6207   34.2424 H   0  0  0  0  0  0  0  0  0  0  0  0
    0.2485   -2.9161   34.6436 H   0  0  0  0  0  0  0  0  0  0  0  0
    2.1887   -4.3445   36.5070 H   0  0  0  0  0  0  0  0  0  0  0  0
    1.5882   -2.6905   36.6138 H   0  0  0  0  0  0  0  0  0  0  0  0
   -0.7179   -3.5595   37.0587 H   0  0  0  0  0  0  0  0  0  0  0  0
    0.4306   -4.1303   38.2723 H   0  0  0  0  0  0  0  0  0  0  0  0
   -1.1195   -5.9305   37.3215 H   0  0  0  0  0  0  0  0  0  0  0  0
    0.6105   -6.3193   37.2049 H   0  0  0  0  0  0  0  0  0  0  0  0
   -0.0865   -3.0850   32.3279 H   0  0  0  0  0  0  0  0  0  0  0  0
    0.7205   -2.2780   30.1496 H   0  0  0  0  0  0  0  0  0  0  0  0
    1.9223   -3.1834   27.7995 H   0  0  0  0  0  0  0  0  0  0  0  0
  1  2  2  0
  2  3  1  0
  3  4  2  0
  4  5  1  0
  5  6  1  0
  6  7  1  0
  7  8  2  0
  8  9  1  0
  9 10  1  0
 10 11  1  0
 11 12  1  0
 12 13  1  0
 13 14  1  0
  5 15  2  0
 15 16  1  0
 16 17  2  0
 17 18  1  0
 18  1  1  0
 17  3  1  0
 10  6  2  0
 14  9  1  0
  1 19  1  0
  2 20  1  0
  4 21  1  0
  7 22  1  0
 11 23  1  0
 11 24  1  0
 12 25  1  0
 12 26  1  0
 13 27  1  0
 13 28  1  0
 14 29  1  0
 14 30  1  0
 15 31  1  0
 16 32  1  0
 18 33  1  0
M  END
>  <Energy>  (1165) 
30.381227379922695

>  <compound_id>  (1165) 
47075

>  <target_id>  (1165) 
1

>  <reference_id>  (1165) 
40

>  <inspiration_ids>  (1165) 
[40, 56]

>  <energy_score>  (1165) 
-22.117469112000634

>  <distance_score>  (1165) 
1.732546711601472

>  <path>  (1165) 
/opt/xchem-fragalysis-2/maxwin/BulkDock/SCRATCH/511023/C47075-P40/C47075-P40.minimised.mol

>  <scratch_subdir>  (1165) 
/opt/xchem-fragalysis-2/maxwin/BulkDock/SCRATCH/511023/C47075-P40

>  <fragmenstein_runtime>  (1165) 
4.462571620941162

>  <fragmenstein_outcome>  (1165) 
too moved

>  <fragmenstein_mode>  (1165) 
expansion

>  <fragmenstein_error>  (1165) 


$$$$
C47075-P56
     RDKit          3D

 33 36  0  0  0  0  0  0  0  0999 V2000
   -0.3596   -5.9479   27.6184 C   0  0  0  0  0  0  0  0  0  0  0  0
   -0.3674   -6.8267   28.6756 C   0  0  0  0  0  0  0  0  0  0  0  0
   -0.0796   -6.0836   29.8510 C   0  0  0  0  0  0  0  0  0  0  0  0
   -0.0103   -6.4092   31.2161 C   0  0  0  0  0  0  0  0  0  0  0  0
    0.2165   -5.4062   32.1787 C   0  0  0  0  0  0  0  0  0  0  0  0
    0.0626   -5.7358   33.5979 C   0  0  0  0  0  0  0  0  0  0  0  0
   -0.5386   -6.9021   34.1496 C   0  0  0  0  0  0  0  0  0  0  0  0
   -0.6674   -6.8570   35.4753 N   0  0  0  0  0  0  0  0  0  0  0  0
   -0.2296   -5.6228   35.7699 N   0  0  0  0  0  0  0  0  0  0  0  0
    0.3671   -4.9686   34.7233 C   0  0  0  0  0  0  0  0  0  0  0  0
    1.0686   -3.6663   34.9897 C   0  0  0  0  0  0  0  0  0  0  0  0
    1.3053   -3.4053   36.4823 C   0  0  0  0  0  0  0  0  0  0  0  0
    0.0234   -3.6488   37.2615 C   0  0  0  0  0  0  0  0  0  0  0  0
   -0.4102   -5.0967   37.1067 C   0  0  0  0  0  0  0  0  0  0  0  0
    0.4634   -4.1027   31.7339 C   0  0  0  0  0  0  0  0  0  0  0  0
    0.4613   -3.7603   30.3754 C   0  0  0  0  0  0  0  0  0  0  0  0
    0.1523   -4.7687   29.4670 C   0  0  0  0  0  0  0  0  0  0  0  0
   -0.0058   -4.7128   28.1054 N   0  0  0  0  0  0  0  0  0  0  0  0
   -0.5223   -6.1204   26.5649 H   0  0  0  0  0  0  0  0  0  0  0  0
   -0.5444   -7.8909   28.6248 H   0  0  0  0  0  0  0  0  0  0  0  0
   -0.1663   -7.4427   31.5035 H   0  0  0  0  0  0  0  0  0  0  0  0
   -0.9142   -7.7739   33.6324 H   0  0  0  0  0  0  0  0  0  0  0  0
    2.0292   -3.6474   34.4631 H   0  0  0  0  0  0  0  0  0  0  0  0
    0.4526   -2.8505   34.5926 H   0  0  0  0  0  0  0  0  0  0  0  0
    2.0989   -4.0624   36.8547 H   0  0  0  0  0  0  0  0  0  0  0  0
    1.6464   -2.3740   36.6252 H   0  0  0  0  0  0  0  0  0  0  0  0
   -0.7647   -2.9834   36.8866 H   0  0  0  0  0  0  0  0  0  0  0  0
    0.1641   -3.4120   38.3217 H   0  0  0  0  0  0  0  0  0  0  0  0
   -1.4675   -5.1971   37.3626 H   0  0  0  0  0  0  0  0  0  0  0  0
    0.1615   -5.7293   37.7822 H   0  0  0  0  0  0  0  0  0  0  0  0
    0.6357   -3.2977   32.4387 H   0  0  0  0  0  0  0  0  0  0  0  0
    0.6406   -2.7379   30.0581 H   0  0  0  0  0  0  0  0  0  0  0  0
    0.1060   -3.8604   27.5732 H   0  0  0  0  0  0  0  0  0  0  0  0
  1  2  2  0
  2  3  1  0
  3  4  2  0
  4  5  1  0
  5  6  1  0
  6  7  1  0
  7  8  2  0
  8  9  1  0
  9 10  1  0
 10 11  1  0
 11 12  1  0
 12 13  1  0
 13 14  1  0
  5 15  2  0
 15 16  1  0
 16 17  2  0
 17 18  1  0
 18  1  1  0
 17  3  1  0
 10  6  2  0
 14  9  1  0
  1 19  1  0
  2 20  1  0
  4 21  1  0
  7 22  1  0
 11 23  1  0
 11 24  1  0
 12 25  1  0
 12 26  1  0
 13 27  1  0
 13 28  1  0
 14 29  1  0
 14 30  1  0
 15 31  1  0
 16 32  1  0
 18 33  1  0
M  END
>  <Energy>  (1166) 
33.66617378181914

>  <compound_id>  (1166) 
47075

>  <target_id>  (1166) 
1

>  <reference_id>  (1166) 
56

>  <inspiration_ids>  (1166) 
[40, 56]

>  <energy_score>  (1166) 
-18.832522710103724

>  <distance_score>  (1166) 
1.7824885314400651

>  <path>  (1166) 
/opt/xchem-fragalysis-2/maxwin/BulkDock/SCRATCH/511023/C47075-P56/C47075-P56.minimised.mol

>  <scratch_subdir>  (1166) 
/opt/xchem-fragalysis-2/maxwin/BulkDock/SCRATCH/511023/C47075-P56

>  <fragmenstein_runtime>  (1166) 
5.07242226600647

>  <fragmenstein_outcome>  (1166) 
too moved

>  <fragmenstein_mode>  (1166) 
expansion

>  <fragmenstein_error>  (1166) 


$$$$
C5612-P40
     RDKit          3D

 25 27  0  0  0  0  0  0  0  0999 V2000
   -0.9149   -7.2713   33.6234 C   0  0  0  0  0  0  0  0  0  0  0  0
   -1.7588   -8.1407   32.9512 C   0  0  0  0  0  0  0  0  0  0  0  0
   -1.8649   -8.2521   31.6138 N   0  0  0  0  0  0  0  0  0  0  0  0
   -1.1093   -7.3924   30.9254 C   0  0  0  0  0  0  0  0  0  0  0  0
   -0.2349   -6.4605   31.4763 C   0  0  0  0  0  0  0  0  0  0  0  0
    0.5355   -5.6384   30.5593 C   0  0  0  0  0  0  0  0  0  0  0  0
    0.6334   -4.2524   30.6822 C   0  0  0  0  0  0  0  0  0  0  0  0
    1.3253   -3.4949   29.7314 C   0  0  0  0  0  0  0  0  0  0  0  0
    1.9498   -4.1786   28.6814 C   0  0  0  0  0  0  0  0  0  0  0  0
    2.7042   -3.7073   27.6340 N   0  0  0  0  0  0  0  0  0  0  0  0
    3.1579   -4.7524   26.8700 C   0  0  0  0  0  0  0  0  0  0  0  0
    2.6801   -5.9174   27.4169 C   0  0  0  0  0  0  0  0  0  0  0  0
    1.8961   -5.5588   28.5400 C   0  0  0  0  0  0  0  0  0  0  0  0
    1.1497   -6.2817   29.4667 C   0  0  0  0  0  0  0  0  0  0  0  0
   -0.1358   -6.4117   32.8651 C   0  0  0  0  0  0  0  0  0  0  0  0
   -0.8892   -7.2532   34.7069 H   0  0  0  0  0  0  0  0  0  0  0  0
   -2.4547   -8.7565   33.5060 H   0  0  0  0  0  0  0  0  0  0  0  0
   -1.2372   -7.4445   29.8479 H   0  0  0  0  0  0  0  0  0  0  0  0
    0.1410   -3.7333   31.5029 H   0  0  0  0  0  0  0  0  0  0  0  0
    1.3777   -2.4131   29.8142 H   0  0  0  0  0  0  0  0  0  0  0  0
    2.9058   -2.7291   27.4698 H   0  0  0  0  0  0  0  0  0  0  0  0
    3.8027   -4.5739   26.0188 H   0  0  0  0  0  0  0  0  0  0  0  0
    2.8965   -6.9103   27.0459 H   0  0  0  0  0  0  0  0  0  0  0  0
    1.0646   -7.3539   29.3367 H   0  0  0  0  0  0  0  0  0  0  0  0
    0.5351   -5.7116   33.3552 H   0  0  0  0  0  0  0  0  0  0  0  0
  1  2  2  0
  2  3  1  0
  3  4  2  0
  4  5  1  0
  5  6  1  0
  6  7  2  0
  7  8  1  0
  8  9  2  0
  9 10  1  0
 10 11  1  0
 11 12  2  0
 12 13  1  0
 13 14  2  0
  5 15  2  0
 15  1  1  0
 14  6  1  0
 13  9  1  0
  1 16  1  0
  2 17  1  0
  4 18  1  0
  7 19  1  0
  8 20  1  0
 10 21  1  0
 11 22  1  0
 12 23  1  0
 14 24  1  0
 15 25  1  0
M  END
>  <Energy>  (1167) 
46.611996568978554

>  <compound_id>  (1167) 
5612

>  <target_id>  (1167) 
1

>  <reference_id>  (1167) 
40

>  <inspiration_ids>  (1167) 
[40, 56]

>  <energy_score>  (1167) 
-9.291932896240098

>  <distance_score>  (1167) 
1.2098917094762107

>  <path>  (1167) 
/opt/xchem-fragalysis-2/maxwin/BulkDock/SCRATCH/511023/C5612-P40/C5612-P40.minimised.mol

>  <scratch_subdir>  (1167) 
/opt/xchem-fragalysis-2/maxwin/BulkDock/SCRATCH/511023/C5612-P40

>  <fragmenstein_runtime>  (1167) 
1.1254806518554688

>  <fragmenstein_outcome>  (1167) 
too moved

>  <fragmenstein_mode>  (1167) 
expansion

>  <fragmenstein_error>  (1167) 


$$$$
C5612-P56
     RDKit          3D

 25 27  0  0  0  0  0  0  0  0999 V2000
   -1.1068   -7.5436   35.2597 C   0  0  0  0  0  0  0  0  0  0  0  0
   -2.0909   -8.4706   34.9393 C   0  0  0  0  0  0  0  0  0  0  0  0
   -2.4976   -8.7271   33.6901 N   0  0  0  0  0  0  0  0  0  0  0  0
   -1.9127   -7.9839   32.7433 C   0  0  0  0  0  0  0  0  0  0  0  0
   -0.9027   -7.0284   32.9345 C   0  0  0  0  0  0  0  0  0  0  0  0
   -0.3962   -6.3276   31.7612 C   0  0  0  0  0  0  0  0  0  0  0  0
   -0.1631   -4.9476   31.6843 C   0  0  0  0  0  0  0  0  0  0  0  0
    0.0563   -4.3096   30.4506 C   0  0  0  0  0  0  0  0  0  0  0  0
   -0.0562   -5.1060   29.3065 C   0  0  0  0  0  0  0  0  0  0  0  0
   -0.0703   -4.7936   27.9702 N   0  0  0  0  0  0  0  0  0  0  0  0
   -0.3298   -5.9266   27.2340 C   0  0  0  0  0  0  0  0  0  0  0  0
   -0.3265   -7.0013   28.0721 C   0  0  0  0  0  0  0  0  0  0  0  0
   -0.2300   -6.4815   29.3685 C   0  0  0  0  0  0  0  0  0  0  0  0
   -0.3018   -7.0957   30.6012 C   0  0  0  0  0  0  0  0  0  0  0  0
   -0.4928   -6.8186   34.2407 C   0  0  0  0  0  0  0  0  0  0  0  0
   -0.8448   -7.3751   36.2977 H   0  0  0  0  0  0  0  0  0  0  0  0
   -2.6037   -9.0341   35.7139 H   0  0  0  0  0  0  0  0  0  0  0  0
   -2.3452   -8.1578   31.7685 H   0  0  0  0  0  0  0  0  0  0  0  0
   -0.2141   -4.3389   32.5860 H   0  0  0  0  0  0  0  0  0  0  0  0
    0.1975   -3.2356   30.3913 H   0  0  0  0  0  0  0  0  0  0  0  0
    0.0254   -3.8501   27.6168 H   0  0  0  0  0  0  0  0  0  0  0  0
   -0.4316   -5.9427   26.1630 H   0  0  0  0  0  0  0  0  0  0  0  0
   -0.3992   -8.0385   27.7879 H   0  0  0  0  0  0  0  0  0  0  0  0
   -0.3858   -8.1774   30.6259 H   0  0  0  0  0  0  0  0  0  0  0  0
    0.2786   -6.0915   34.4756 H   0  0  0  0  0  0  0  0  0  0  0  0
  1  2  2  0
  2  3  1  0
  3  4  2  0
  4  5  1  0
  5  6  1  0
  6  7  2  0
  7  8  1  0
  8  9  2  0
  9 10  1  0
 10 11  1  0
 11 12  2  0
 12 13  1  0
 13 14  2  0
  5 15  2  0
 15  1  1  0
 14  6  1  0
 13  9  1  0
  1 16  1  0
  2 17  1  0
  4 18  1  0
  7 19  1  0
  8 20  1  0
 10 21  1  0
 11 22  1  0
 12 23  1  0
 14 24  1  0
 15 25  1  0
M  END
>  <Energy>  (1168) 
53.445051127440777

>  <compound_id>  (1168) 
5612

>  <target_id>  (1168) 
1

>  <reference_id>  (1168) 
56

>  <inspiration_ids>  (1168) 
[40, 56]

>  <energy_score>  (1168) 
-2.4588783377778896

>  <distance_score>  (1168) 
1.4663431402805507

>  <path>  (1168) 
/opt/xchem-fragalysis-2/maxwin/BulkDock/SCRATCH/511023/C5612-P56/C5612-P56.minimised.mol

>  <scratch_subdir>  (1168) 
/opt/xchem-fragalysis-2/maxwin/BulkDock/SCRATCH/511023/C5612-P56

>  <fragmenstein_runtime>  (1168) 
1.3484272956848145

>  <fragmenstein_outcome>  (1168) 
too moved

>  <fragmenstein_mode>  (1168) 
expansion

>  <fragmenstein_error>  (1168) 


$$$$
C37985-P40
     RDKit          3D

 22 24  0  0  0  0  0  0  0  0999 V2000
    2.3708   -5.2035   27.4661 C   0  0  0  0  0  0  0  0  0  0  0  0
    1.9370   -6.2567   28.2371 C   0  0  0  0  0  0  0  0  0  0  0  0
    1.1497   -5.7404   29.3011 C   0  0  0  0  0  0  0  0  0  0  0  0
    0.4904   -6.3008   30.4177 C   0  0  0  0  0  0  0  0  0  0  0  0
   -0.0280   -5.4510   31.4111 C   0  0  0  0  0  0  0  0  0  0  0  0
   -0.3633   -5.9518   32.7346 C   0  0  0  0  0  0  0  0  0  0  0  0
   -0.4470   -5.2600   33.9685 C   0  0  0  0  0  0  0  0  0  0  0  0
   -0.5814   -6.0819   35.0087 N   0  0  0  0  0  0  0  0  0  0  0  0
   -0.6459   -7.3478   34.4610 O   0  0  0  0  0  0  0  0  0  0  0  0
   -0.5306   -7.2629   33.1112 C   0  0  0  0  0  0  0  0  0  0  0  0
   -0.0720   -4.0713   31.1738 C   0  0  0  0  0  0  0  0  0  0  0  0
    0.4768   -3.5033   30.0217 C   0  0  0  0  0  0  0  0  0  0  0  0
    1.1285   -4.3588   29.1365 C   0  0  0  0  0  0  0  0  0  0  0  0
    1.8576   -4.0584   28.0099 N   0  0  0  0  0  0  0  0  0  0  0  0
    3.0117   -5.1700   26.5939 H   0  0  0  0  0  0  0  0  0  0  0  0
    2.1994   -7.2798   28.0412 H   0  0  0  0  0  0  0  0  0  0  0  0
    0.4973   -7.3758   30.5557 H   0  0  0  0  0  0  0  0  0  0  0  0
   -0.3716   -4.2005   34.1684 H   0  0  0  0  0  0  0  0  0  0  0  0
   -0.5627   -8.2107   32.5978 H   0  0  0  0  0  0  0  0  0  0  0  0
   -0.5056   -3.3913   31.9058 H   0  0  0  0  0  0  0  0  0  0  0  0
    0.4527   -2.4285   29.8648 H   0  0  0  0  0  0  0  0  0  0  0  0
    2.0130   -3.1167   27.6700 H   0  0  0  0  0  0  0  0  0  0  0  0
  1  2  2  0
  2  3  1  0
  3  4  2  0
  4  5  1  0
  5  6  1  0
  6  7  1  0
  7  8  2  0
  8  9  1  0
  9 10  1  0
  5 11  2  0
 11 12  1  0
 12 13  2  0
 13 14  1  0
 14  1  1  0
 13  3  1  0
 10  6  2  0
  1 15  1  0
  2 16  1  0
  4 17  1  0
  7 18  1  0
 10 19  1  0
 11 20  1  0
 12 21  1  0
 14 22  1  0
M  END
>  <Energy>  (1169) 
22.680868506483449

>  <compound_id>  (1169) 
37985

>  <target_id>  (1169) 
1

>  <reference_id>  (1169) 
40

>  <inspiration_ids>  (1169) 
[40, 56]

>  <energy_score>  (1169) 
-14.466978244670571

>  <distance_score>  (1169) 
0.9754250501486952

>  <path>  (1169) 
/opt/xchem-fragalysis-2/maxwin/BulkDock/SCRATCH/511023/C37985-P40/C37985-P40.minimised.mol

>  <scratch_subdir>  (1169) 
/opt/xchem-fragalysis-2/maxwin/BulkDock/SCRATCH/511023/C37985-P40

>  <fragmenstein_runtime>  (1169) 
1.104956865310669

>  <fragmenstein_outcome>  (1169) 
acceptable

>  <fragmenstein_mode>  (1169) 
expansion

>  <fragmenstein_error>  (1169) 


$$$$
C37985-P56
     RDKit          3D

 22 24  0  0  0  0  0  0  0  0999 V2000
   -0.3687   -6.0281   27.4517 C   0  0  0  0  0  0  0  0  0  0  0  0
   -0.3903   -6.9590   28.4603 C   0  0  0  0  0  0  0  0  0  0  0  0
   -0.2159   -6.2641   29.6812 C   0  0  0  0  0  0  0  0  0  0  0  0
   -0.2279   -6.6621   31.0234 C   0  0  0  0  0  0  0  0  0  0  0  0
   -0.0603   -5.7010   32.0279 C   0  0  0  0  0  0  0  0  0  0  0  0
   -0.1095   -6.0843   33.4227 C   0  0  0  0  0  0  0  0  0  0  0  0
    0.3091   -5.3998   34.5830 C   0  0  0  0  0  0  0  0  0  0  0  0
    0.1355   -6.1174   35.6948 N   0  0  0  0  0  0  0  0  0  0  0  0
   -0.4572   -7.2927   35.2724 O   0  0  0  0  0  0  0  0  0  0  0  0
   -0.6171   -7.2581   33.9265 C   0  0  0  0  0  0  0  0  0  0  0  0
    0.1718   -4.3628   31.6759 C   0  0  0  0  0  0  0  0  0  0  0  0
    0.2258   -3.9488   30.3435 C   0  0  0  0  0  0  0  0  0  0  0  0
    0.0045   -4.9254   29.3767 C   0  0  0  0  0  0  0  0  0  0  0  0
   -0.0696   -4.8111   28.0132 N   0  0  0  0  0  0  0  0  0  0  0  0
   -0.4744   -6.1580   26.3851 H   0  0  0  0  0  0  0  0  0  0  0  0
   -0.5076   -8.0261   28.3495 H   0  0  0  0  0  0  0  0  0  0  0  0
   -0.3600   -7.7124   31.2551 H   0  0  0  0  0  0  0  0  0  0  0  0
    0.7620   -4.4233   34.6740 H   0  0  0  0  0  0  0  0  0  0  0  0
   -1.0882   -8.1310   33.5016 H   0  0  0  0  0  0  0  0  0  0  0  0
    0.3099   -3.6045   32.4443 H   0  0  0  0  0  0  0  0  0  0  0  0
    0.3974   -2.9093   30.0836 H   0  0  0  0  0  0  0  0  0  0  0  0
    0.0559   -3.9313   27.5316 H   0  0  0  0  0  0  0  0  0  0  0  0
  1  2  2  0
  2  3  1  0
  3  4  2  0
  4  5  1  0
  5  6  1  0
  6  7  1  0
  7  8  2  0
  8  9  1  0
  9 10  1  0
  5 11  2  0
 11 12  1  0
 12 13  2  0
 13 14  1  0
 14  1  1  0
 13  3  1  0
 10  6  2  0
  1 15  1  0
  2 16  1  0
  4 17  1  0
  7 18  1  0
 10 19  1  0
 11 20  1  0
 12 21  1  0
 14 22  1  0
M  END
>  <Energy>  (1170) 
20.021715205972125

>  <compound_id>  (1170) 
37985

>  <target_id>  (1170) 
1

>  <reference_id>  (1170) 
56

>  <inspiration_ids>  (1170) 
[40, 56]

>  <energy_score>  (1170) 
-17.126131545181153

>  <distance_score>  (1170) 
1.2667690722770761

>  <path>  (1170) 
/opt/xchem-fragalysis-2/maxwin/BulkDock/SCRATCH/511023/C37985-P56/C37985-P56.minimised.mol

>  <scratch_subdir>  (1170) 
/opt/xchem-fragalysis-2/maxwin/BulkDock/SCRATCH/511023/C37985-P56

>  <fragmenstein_runtime>  (1170) 
1.5745511054992676

>  <fragmenstein_outcome>  (1170) 
too moved

>  <fragmenstein_mode>  (1170) 
expansion

>  <fragmenstein_error>  (1170) 


$$$$
C44266-P40
     RDKit          3D

 22 24  0  0  0  0  0  0  0  0999 V2000
   -0.2088   -3.1547   30.5948 C   0  0  0  0  0  0  0  0  0  0  0  0
   -0.5067   -4.2691   31.3683 C   0  0  0  0  0  0  0  0  0  0  0  0
   -0.0704   -5.5484   30.9878 C   0  0  0  0  0  0  0  0  0  0  0  0
   -0.1197   -6.5834   31.9954 C   0  0  0  0  0  0  0  0  0  0  0  0
   -1.2441   -7.2817   32.3644 C   0  0  0  0  0  0  0  0  0  0  0  0
   -1.1399   -7.5899   34.0502 S   0  0  0  0  0  0  0  0  0  0  0  0
    0.4993   -7.1471   34.0194 C   0  0  0  0  0  0  0  0  0  0  0  0
    0.9314   -6.6652   32.8813 N   0  0  0  0  0  0  0  0  0  0  0  0
    0.6693   -5.6925   29.7976 C   0  0  0  0  0  0  0  0  0  0  0  0
    1.1947   -6.7807   29.0570 C   0  0  0  0  0  0  0  0  0  0  0  0
    2.0347   -6.2769   28.0891 C   0  0  0  0  0  0  0  0  0  0  0  0
    1.9083   -4.9138   28.1062 N   0  0  0  0  0  0  0  0  0  0  0  0
    1.0342   -4.5394   29.0992 C   0  0  0  0  0  0  0  0  0  0  0  0
    0.5881   -3.2657   29.4563 C   0  0  0  0  0  0  0  0  0  0  0  0
   -0.5524   -2.1710   30.9096 H   0  0  0  0  0  0  0  0  0  0  0  0
   -1.0246   -4.1235   32.3156 H   0  0  0  0  0  0  0  0  0  0  0  0
   -2.1632   -7.4309   31.8273 H   0  0  0  0  0  0  0  0  0  0  0  0
    1.1319   -7.2316   34.8933 H   0  0  0  0  0  0  0  0  0  0  0  0
    0.9892   -7.8135   29.2867 H   0  0  0  0  0  0  0  0  0  0  0  0
    2.6945   -6.7569   27.3772 H   0  0  0  0  0  0  0  0  0  0  0  0
    2.4074   -4.2626   27.5141 H   0  0  0  0  0  0  0  0  0  0  0  0
    0.8598   -2.3828   28.8842 H   0  0  0  0  0  0  0  0  0  0  0  0
  1  2  2  0
  2  3  1  0
  3  4  1  0
  4  5  2  0
  5  6  1  0
  6  7  1  0
  7  8  2  0
  3  9  2  0
  9 10  1  0
 10 11  2  0
 11 12  1  0
 12 13  1  0
 13 14  2  0
 14  1  1  0
  8  4  1  0
 13  9  1  0
  1 15  1  0
  2 16  1  0
  5 17  1  0
  7 18  1  0
 10 19  1  0
 11 20  1  0
 12 21  1  0
 14 22  1  0
M  END
>  <Energy>  (1171) 
49.212428653611695

>  <compound_id>  (1171) 
44266

>  <target_id>  (1171) 
1

>  <reference_id>  (1171) 
40

>  <inspiration_ids>  (1171) 
[40, 56]

>  <energy_score>  (1171) 
-53.70470638926682

>  <distance_score>  (1171) 
1.7712362331187383

>  <path>  (1171) 
/opt/xchem-fragalysis-2/maxwin/BulkDock/SCRATCH/511023/C44266-P40/C44266-P40.minimised.mol

>  <scratch_subdir>  (1171) 
/opt/xchem-fragalysis-2/maxwin/BulkDock/SCRATCH/511023/C44266-P40

>  <fragmenstein_runtime>  (1171) 
0.9623613357543945

>  <fragmenstein_outcome>  (1171) 
too moved

>  <fragmenstein_mode>  (1171) 
expansion

>  <fragmenstein_error>  (1171) 


$$$$
C44266-P56
     RDKit          3D

 22 24  0  0  0  0  0  0  0  0999 V2000
    0.9267   -3.6040   31.5296 C   0  0  0  0  0  0  0  0  0  0  0  0
    0.5207   -4.7336   32.2291 C   0  0  0  0  0  0  0  0  0  0  0  0
   -0.0095   -5.8659   31.5818 C   0  0  0  0  0  0  0  0  0  0  0  0
   -0.5523   -6.9220   32.4293 C   0  0  0  0  0  0  0  0  0  0  0  0
   -1.6440   -7.6968   32.1297 C   0  0  0  0  0  0  0  0  0  0  0  0
   -2.0797   -8.6783   33.4539 S   0  0  0  0  0  0  0  0  0  0  0  0
   -0.9198   -7.8694   34.3952 C   0  0  0  0  0  0  0  0  0  0  0  0
   -0.1320   -7.0552   33.7409 N   0  0  0  0  0  0  0  0  0  0  0  0
   -0.0744   -5.8516   30.1628 C   0  0  0  0  0  0  0  0  0  0  0  0
   -0.4358   -6.7715   29.1258 C   0  0  0  0  0  0  0  0  0  0  0  0
   -0.4067   -6.1082   27.9174 C   0  0  0  0  0  0  0  0  0  0  0  0
    0.0277   -4.8349   28.1668 N   0  0  0  0  0  0  0  0  0  0  0  0
    0.2911   -4.6713   29.5034 C   0  0  0  0  0  0  0  0  0  0  0  0
    0.8015   -3.5449   30.1493 C   0  0  0  0  0  0  0  0  0  0  0  0
    1.3215   -2.7503   32.0753 H   0  0  0  0  0  0  0  0  0  0  0  0
    0.5954   -4.7229   33.3170 H   0  0  0  0  0  0  0  0  0  0  0  0
   -2.2414   -7.6671   31.2456 H   0  0  0  0  0  0  0  0  0  0  0  0
   -0.8218   -8.0506   35.4584 H   0  0  0  0  0  0  0  0  0  0  0  0
   -0.6774   -7.8151   29.2619 H   0  0  0  0  0  0  0  0  0  0  0  0
   -0.6103   -6.4445   26.9103 H   0  0  0  0  0  0  0  0  0  0  0  0
    0.1864   -4.1038   27.4894 H   0  0  0  0  0  0  0  0  0  0  0  0
    1.0849   -2.6512   29.6016 H   0  0  0  0  0  0  0  0  0  0  0  0
  1  2  2  0
  2  3  1  0
  3  4  1  0
  4  5  2  0
  5  6  1  0
  6  7  1  0
  7  8  2  0
  3  9  2  0
  9 10  1  0
 10 11  2  0
 11 12  1  0
 12 13  1  0
 13 14  2  0
 14  1  1  0
  8  4  1  0
 13  9  1  0
  1 15  1  0
  2 16  1  0
  5 17  1  0
  7 18  1  0
 10 19  1  0
 11 20  1  0
 12 21  1  0
 14 22  1  0
M  END
>  <Energy>  (1172) 
37.604838562234534

>  <compound_id>  (1172) 
44266

>  <target_id>  (1172) 
1

>  <reference_id>  (1172) 
56

>  <inspiration_ids>  (1172) 
[40, 56]

>  <energy_score>  (1172) 
-65.31229648064237

>  <distance_score>  (1172) 
1.946008239898361

>  <path>  (1172) 
/opt/xchem-fragalysis-2/maxwin/BulkDock/SCRATCH/511023/C44266-P56/C44266-P56.minimised.mol

>  <scratch_subdir>  (1172) 
/opt/xchem-fragalysis-2/maxwin/BulkDock/SCRATCH/511023/C44266-P56

>  <fragmenstein_runtime>  (1172) 
1.4300274848937988

>  <fragmenstein_outcome>  (1172) 
too moved

>  <fragmenstein_mode>  (1172) 
expansion

>  <fragmenstein_error>  (1172) 


$$$$
C47078-P40
     RDKit          3D

 22 24  0  0  0  0  0  0  0  0999 V2000
    2.5167   -4.4296   27.8315 C   0  0  0  0  0  0  0  0  0  0  0  0
    2.2543   -5.7716   27.7198 C   0  0  0  0  0  0  0  0  0  0  0  0
    1.3693   -6.1152   28.7726 C   0  0  0  0  0  0  0  0  0  0  0  0
    0.6907   -7.2857   29.1262 C   0  0  0  0  0  0  0  0  0  0  0  0
   -0.0189   -7.3531   30.3139 C   0  0  0  0  0  0  0  0  0  0  0  0
   -0.0569   -6.2698   31.1835 C   0  0  0  0  0  0  0  0  0  0  0  0
   -0.5954   -6.5170   32.5025 C   0  0  0  0  0  0  0  0  0  0  0  0
   -1.3253   -7.6148   33.0080 C   0  0  0  0  0  0  0  0  0  0  0  0
   -1.5410   -7.5063   34.3131 N   0  0  0  0  0  0  0  0  0  0  0  0
   -0.9215   -6.3363   34.6941 O   0  0  0  0  0  0  0  0  0  0  0  0
   -0.3603   -5.7508   33.6148 C   0  0  0  0  0  0  0  0  0  0  0  0
    0.4969   -5.0333   30.7884 C   0  0  0  0  0  0  0  0  0  0  0  0
    1.2006   -4.9907   29.5718 C   0  0  0  0  0  0  0  0  0  0  0  0
    1.8502   -3.9576   28.9338 N   0  0  0  0  0  0  0  0  0  0  0  0
    3.1291   -3.7641   27.2365 H   0  0  0  0  0  0  0  0  0  0  0  0
    2.6557   -6.4172   26.9496 H   0  0  0  0  0  0  0  0  0  0  0  0
    0.7470   -8.1565   28.4994 H   0  0  0  0  0  0  0  0  0  0  0  0
   -0.4499   -8.3131   30.5826 H   0  0  0  0  0  0  0  0  0  0  0  0
   -1.7152   -8.4860   32.5052 H   0  0  0  0  0  0  0  0  0  0  0  0
    0.1625   -4.8282   33.8170 H   0  0  0  0  0  0  0  0  0  0  0  0
    0.4351   -4.1508   31.4177 H   0  0  0  0  0  0  0  0  0  0  0  0
    1.8691   -2.9992   29.2594 H   0  0  0  0  0  0  0  0  0  0  0  0
  1  2  2  0
  2  3  1  0
  3  4  2  0
  4  5  1  0
  5  6  2  0
  6  7  1  0
  7  8  1  0
  8  9  2  0
  9 10  1  0
 10 11  1  0
  6 12  1  0
 12 13  2  0
 13 14  1  0
 14  1  1  0
 13  3  1  0
 11  7  2  0
  1 15  1  0
  2 16  1  0
  4 17  1  0
  5 18  1  0
  8 19  1  0
 11 20  1  0
 12 21  1  0
 14 22  1  0
M  END
>  <Energy>  (1173) 
24.475223554556599

>  <compound_id>  (1173) 
47078

>  <target_id>  (1173) 
1

>  <reference_id>  (1173) 
40

>  <inspiration_ids>  (1173) 
[40, 56]

>  <energy_score>  (1173) 
-9.491825917368999

>  <distance_score>  (1173) 
1.9323825956075464

>  <path>  (1173) 
/opt/xchem-fragalysis-2/maxwin/BulkDock/SCRATCH/511023/C47078-P40/C47078-P40.minimised.mol

>  <scratch_subdir>  (1173) 
/opt/xchem-fragalysis-2/maxwin/BulkDock/SCRATCH/511023/C47078-P40

>  <fragmenstein_runtime>  (1173) 
1.3604817390441895

>  <fragmenstein_outcome>  (1173) 
too moved

>  <fragmenstein_mode>  (1173) 
expansion

>  <fragmenstein_error>  (1173) 


$$$$
C47078-P56
     RDKit          3D

 22 24  0  0  0  0  0  0  0  0999 V2000
    0.6687   -3.8349   28.1914 C   0  0  0  0  0  0  0  0  0  0  0  0
    0.0931   -5.0432   27.8869 C   0  0  0  0  0  0  0  0  0  0  0  0
   -0.1258   -5.7297   29.0893 C   0  0  0  0  0  0  0  0  0  0  0  0
   -0.5487   -7.0288   29.3550 C   0  0  0  0  0  0  0  0  0  0  0  0
   -0.6766   -7.4143   30.6751 C   0  0  0  0  0  0  0  0  0  0  0  0
   -0.4265   -6.5283   31.7190 C   0  0  0  0  0  0  0  0  0  0  0  0
   -0.6100   -7.0269   33.0532 C   0  0  0  0  0  0  0  0  0  0  0  0
    0.1420   -6.8343   34.2136 C   0  0  0  0  0  0  0  0  0  0  0  0
   -0.2674   -7.6232   35.2035 N   0  0  0  0  0  0  0  0  0  0  0  0
   -1.3563   -8.3021   34.7098 O   0  0  0  0  0  0  0  0  0  0  0  0
   -1.5560   -7.9471   33.4269 C   0  0  0  0  0  0  0  0  0  0  0  0
    0.0603   -5.2342   31.4665 C   0  0  0  0  0  0  0  0  0  0  0  0
    0.2225   -4.8749   30.1274 C   0  0  0  0  0  0  0  0  0  0  0  0
    0.7195   -3.7299   29.5529 N   0  0  0  0  0  0  0  0  0  0  0  0
    1.0382   -3.0273   27.5715 H   0  0  0  0  0  0  0  0  0  0  0  0
   -0.0756   -5.4710   26.9136 H   0  0  0  0  0  0  0  0  0  0  0  0
   -0.7002   -7.7339   28.5496 H   0  0  0  0  0  0  0  0  0  0  0  0
   -0.9082   -8.4539   30.8848 H   0  0  0  0  0  0  0  0  0  0  0  0
    1.0062   -6.2039   34.3705 H   0  0  0  0  0  0  0  0  0  0  0  0
   -2.3748   -8.4490   32.9349 H   0  0  0  0  0  0  0  0  0  0  0  0
    0.3079   -4.5503   32.2716 H   0  0  0  0  0  0  0  0  0  0  0  0
    1.0693   -2.9302   30.0637 H   0  0  0  0  0  0  0  0  0  0  0  0
  1  2  2  0
  2  3  1  0
  3  4  2  0
  4  5  1  0
  5  6  2  0
  6  7  1  0
  7  8  1  0
  8  9  2  0
  9 10  1  0
 10 11  1  0
  6 12  1  0
 12 13  2  0
 13 14  1  0
 14  1  1  0
 13  3  1  0
 11  7  2  0
  1 15  1  0
  2 16  1  0
  4 17  1  0
  5 18  1  0
  8 19  1  0
 11 20  1  0
 12 21  1  0
 14 22  1  0
M  END
>  <Energy>  (1174) 
24.517365893950178

>  <compound_id>  (1174) 
47078

>  <target_id>  (1174) 
1

>  <reference_id>  (1174) 
56

>  <inspiration_ids>  (1174) 
[40, 56]

>  <energy_score>  (1174) 
-9.449683577974753

>  <distance_score>  (1174) 
2.4516929953869373

>  <path>  (1174) 
/opt/xchem-fragalysis-2/maxwin/BulkDock/SCRATCH/511023/C47078-P56/C47078-P56.minimised.mol

>  <scratch_subdir>  (1174) 
/opt/xchem-fragalysis-2/maxwin/BulkDock/SCRATCH/511023/C47078-P56

>  <fragmenstein_runtime>  (1174) 
1.6370787620544434

>  <fragmenstein_outcome>  (1174) 
too moved

>  <fragmenstein_mode>  (1174) 
expansion

>  <fragmenstein_error>  (1174) 


$$$$
C42689-P40
     RDKit          3D

 42 44  0  0  0  0  0  0  0  0999 V2000
    1.1477   -6.4410   29.4174 C   0  0  0  0  0  0  0  0  0  0  0  0
    2.0590   -5.4768   28.6425 C   0  0  0  0  0  0  0  0  0  0  0  0
    3.4681   -5.3638   29.2661 C   0  0  0  0  0  0  0  0  0  0  0  0
    3.6441   -4.6334   30.5196 N   0  0  0  0  0  0  0  0  0  0  0  0
    2.6007   -4.1652   31.5671 C   0  0  0  0  0  0  0  0  0  0  0  0
    1.4371   -4.2234   31.5515 O   0  0  0  0  0  0  0  0  0  0  0  0
    3.3611   -3.5620   32.7081 C   0  0  0  0  0  0  0  0  0  0  0  0
    3.0645   -3.6950   34.0161 C   0  0  0  0  0  0  0  0  0  0  0  0
    2.0545   -4.4870   34.6436 C   0  0  0  0  0  0  0  0  0  0  0  0
    1.5349   -5.6538   34.1414 C   0  0  0  0  0  0  0  0  0  0  0  0
    0.5300   -6.0807   34.9638 N   0  0  0  0  0  0  0  0  0  0  0  0
   -0.3609   -7.1772   34.6539 C   0  0  0  0  0  0  0  0  0  0  0  0
    0.4966   -5.2987   36.0958 C   0  0  0  0  0  0  0  0  0  0  0  0
   -0.2664   -5.3946   37.2691 C   0  0  0  0  0  0  0  0  0  0  0  0
   -0.0833   -4.4238   38.2616 C   0  0  0  0  0  0  0  0  0  0  0  0
    0.8109   -3.3797   38.0889 C   0  0  0  0  0  0  0  0  0  0  0  0
    1.5628   -3.2924   36.9169 C   0  0  0  0  0  0  0  0  0  0  0  0
    1.4289   -4.2699   35.9080 C   0  0  0  0  0  0  0  0  0  0  0  0
    1.3766   -4.1535   28.4859 C   0  0  0  0  0  0  0  0  0  0  0  0
    0.0682   -4.0574   28.4831 N   0  0  0  0  0  0  0  0  0  0  0  0
   -0.3044   -2.7414   28.5477 C   0  0  0  0  0  0  0  0  0  0  0  0
    0.7269   -1.8341   28.5151 C   0  0  0  0  0  0  0  0  0  0  0  0
    2.2123   -2.6538   28.3317 S   0  0  0  0  0  0  0  0  0  0  0  0
    0.0818   -6.2924   29.2495 H   0  0  0  0  0  0  0  0  0  0  0  0
    1.3452   -7.4669   29.1171 H   0  0  0  0  0  0  0  0  0  0  0  0
    1.2690   -6.3532   30.4967 H   0  0  0  0  0  0  0  0  0  0  0  0
    2.1800   -5.8905   27.6325 H   0  0  0  0  0  0  0  0  0  0  0  0
    4.1474   -4.8814   28.5523 H   0  0  0  0  0  0  0  0  0  0  0  0
    3.8806   -6.3652   29.4219 H   0  0  0  0  0  0  0  0  0  0  0  0
    4.5723   -4.3541   30.8172 H   0  0  0  0  0  0  0  0  0  0  0  0
    4.1737   -2.9028   32.4227 H   0  0  0  0  0  0  0  0  0  0  0  0
    3.6753   -3.1091   34.7015 H   0  0  0  0  0  0  0  0  0  0  0  0
    1.7397   -6.1839   33.2229 H   0  0  0  0  0  0  0  0  0  0  0  0
   -1.3911   -6.8321   34.7692 H   0  0  0  0  0  0  0  0  0  0  0  0
   -0.1969   -7.5077   33.6250 H   0  0  0  0  0  0  0  0  0  0  0  0
   -0.1479   -7.9937   35.3482 H   0  0  0  0  0  0  0  0  0  0  0  0
   -0.9732   -6.2009   37.4188 H   0  0  0  0  0  0  0  0  0  0  0  0
   -0.6686   -4.4855   39.1773 H   0  0  0  0  0  0  0  0  0  0  0  0
    0.9265   -2.6272   38.8642 H   0  0  0  0  0  0  0  0  0  0  0  0
    2.2621   -2.4710   36.7906 H   0  0  0  0  0  0  0  0  0  0  0  0
   -1.3556   -2.4829   28.5918 H   0  0  0  0  0  0  0  0  0  0  0  0
    0.6650   -0.7560   28.5282 H   0  0  0  0  0  0  0  0  0  0  0  0
  1  2  1  0
  2  3  1  0
  3  4  1  0
  4  5  1  0
  5  6  2  0
  5  7  1  0
  7  8  2  3
  8  9  1  0
  9 10  2  0
 10 11  1  0
 11 12  1  0
 11 13  1  0
 13 14  2  0
 14 15  1  0
 15 16  2  0
 16 17  1  0
 17 18  2  0
  2 19  1  0
 19 20  2  0
 20 21  1  0
 21 22  2  0
 22 23  1  0
 18  9  1  0
 23 19  1  0
 18 13  1  0
  1 24  1  0
  1 25  1  0
  1 26  1  0
  2 27  1  0
  3 28  1  0
  3 29  1  0
  4 30  1  0
  7 31  1  0
  8 32  1  0
 10 33  1  0
 12 34  1  0
 12 35  1  0
 12 36  1  0
 14 37  1  0
 15 38  1  0
 16 39  1  0
 17 40  1  0
 21 41  1  0
 22 42  1  0
M  END
>  <Energy>  (1175) 
39.811655591494102

>  <compound_id>  (1175) 
42689

>  <target_id>  (1175) 
1

>  <reference_id>  (1175) 
40

>  <inspiration_ids>  (1175) 
[40, 56]

>  <energy_score>  (1175) 
-48.0835370336456

>  <distance_score>  (1175) 
2.7120279856535383

>  <path>  (1175) 
/opt/xchem-fragalysis-2/maxwin/BulkDock/SCRATCH/511023/C42689-P40/C42689-P40.minimised.mol

>  <scratch_subdir>  (1175) 
/opt/xchem-fragalysis-2/maxwin/BulkDock/SCRATCH/511023/C42689-P40

>  <fragmenstein_runtime>  (1175) 
6.031595468521118

>  <fragmenstein_outcome>  (1175) 
too moved

>  <fragmenstein_mode>  (1175) 
expansion

>  <fragmenstein_error>  (1175) 


$$$$
C42689-P56
     RDKit          3D

 42 44  0  0  0  0  0  0  0  0999 V2000
   -0.4646   -4.4610   31.7809 C   0  0  0  0  0  0  0  0  0  0  0  0
    0.4638   -4.7459   30.6004 C   0  0  0  0  0  0  0  0  0  0  0  0
    1.7924   -5.3748   31.0506 C   0  0  0  0  0  0  0  0  0  0  0  0
    2.4487   -4.8436   32.2173 N   0  0  0  0  0  0  0  0  0  0  0  0
    2.7751   -3.5098   32.5773 C   0  0  0  0  0  0  0  0  0  0  0  0
    2.5215   -2.4728   32.0443 O   0  0  0  0  0  0  0  0  0  0  0  0
    3.6141   -3.4964   33.8029 C   0  0  0  0  0  0  0  0  0  0  0  0
    3.2397   -3.8731   35.0352 C   0  0  0  0  0  0  0  0  0  0  0  0
    1.9867   -4.3775   35.4929 C   0  0  0  0  0  0  0  0  0  0  0  0
    1.3147   -5.4762   35.0138 C   0  0  0  0  0  0  0  0  0  0  0  0
    0.1790   -5.6446   35.7577 N   0  0  0  0  0  0  0  0  0  0  0  0
   -0.7994   -6.6733   35.5021 C   0  0  0  0  0  0  0  0  0  0  0  0
    0.1468   -4.7320   36.7869 C   0  0  0  0  0  0  0  0  0  0  0  0
   -0.7452   -4.5671   37.8554 C   0  0  0  0  0  0  0  0  0  0  0  0
   -0.5159   -3.5286   38.7613 C   0  0  0  0  0  0  0  0  0  0  0  0
    0.5736   -2.6805   38.6130 C   0  0  0  0  0  0  0  0  0  0  0  0
    1.4683   -2.8598   37.5551 C   0  0  0  0  0  0  0  0  0  0  0  0
    1.2626   -3.9036   36.6276 C   0  0  0  0  0  0  0  0  0  0  0  0
    0.7107   -3.5987   29.6517 C   0  0  0  0  0  0  0  0  0  0  0  0
    1.5108   -3.7178   28.6088 N   0  0  0  0  0  0  0  0  0  0  0  0
    1.5979   -2.5111   27.9475 C   0  0  0  0  0  0  0  0  0  0  0  0
    0.8023   -1.5043   28.4423 C   0  0  0  0  0  0  0  0  0  0  0  0
   -0.0763   -2.0729   29.7909 S   0  0  0  0  0  0  0  0  0  0  0  0
   -0.0717   -3.6867   32.4470 H   0  0  0  0  0  0  0  0  0  0  0  0
   -1.4472   -4.1251   31.4380 H   0  0  0  0  0  0  0  0  0  0  0  0
   -0.6210   -5.3686   32.3738 H   0  0  0  0  0  0  0  0  0  0  0  0
   -0.0401   -5.5051   29.9834 H   0  0  0  0  0  0  0  0  0  0  0  0
    2.5381   -5.3644   30.2533 H   0  0  0  0  0  0  0  0  0  0  0  0
    1.5840   -6.4161   31.3075 H   0  0  0  0  0  0  0  0  0  0  0  0
    2.9038   -5.4814   32.8638 H   0  0  0  0  0  0  0  0  0  0  0  0
    4.5861   -3.0385   33.6534 H   0  0  0  0  0  0  0  0  0  0  0  0
    3.9714   -3.7125   35.8270 H   0  0  0  0  0  0  0  0  0  0  0  0
    1.5347   -6.1689   34.2182 H   0  0  0  0  0  0  0  0  0  0  0  0
   -1.7944   -6.2475   35.6186 H   0  0  0  0  0  0  0  0  0  0  0  0
   -0.6823   -7.0487   34.4821 H   0  0  0  0  0  0  0  0  0  0  0  0
   -0.6451   -7.4821   36.2192 H   0  0  0  0  0  0  0  0  0  0  0  0
   -1.5858   -5.2300   37.9957 H   0  0  0  0  0  0  0  0  0  0  0  0
   -1.2027   -3.3856   39.5926 H   0  0  0  0  0  0  0  0  0  0  0  0
    0.7388   -1.8771   39.3254 H   0  0  0  0  0  0  0  0  0  0  0  0
    2.3281   -2.2047   37.4539 H   0  0  0  0  0  0  0  0  0  0  0  0
    2.2500   -2.4172   27.0863 H   0  0  0  0  0  0  0  0  0  0  0  0
    0.6967   -0.4950   28.0747 H   0  0  0  0  0  0  0  0  0  0  0  0
  1  2  1  0
  2  3  1  0
  3  4  1  0
  4  5  1  0
  5  6  2  0
  5  7  1  0
  7  8  2  3
  8  9  1  0
  9 10  2  0
 10 11  1  0
 11 12  1  0
 11 13  1  0
 13 14  2  0
 14 15  1  0
 15 16  2  0
 16 17  1  0
 17 18  2  0
  2 19  1  0
 19 20  2  0
 20 21  1  0
 21 22  2  0
 22 23  1  0
 18  9  1  0
 23 19  1  0
 18 13  1  0
  1 24  1  0
  1 25  1  0
  1 26  1  0
  2 27  1  0
  3 28  1  0
  3 29  1  0
  4 30  1  0
  7 31  1  0
  8 32  1  0
 10 33  1  0
 12 34  1  0
 12 35  1  0
 12 36  1  0
 14 37  1  0
 15 38  1  0
 16 39  1  0
 17 40  1  0
 21 41  1  0
 22 42  1  0
M  END
>  <Energy>  (1176) 
20.94355398427782

>  <compound_id>  (1176) 
42689

>  <target_id>  (1176) 
1

>  <reference_id>  (1176) 
56

>  <inspiration_ids>  (1176) 
[40, 56]

>  <energy_score>  (1176) 
-28.781655433280182

>  <distance_score>  (1176) 
2.951611379826625

>  <path>  (1176) 
/opt/xchem-fragalysis-2/maxwin/BulkDock/SCRATCH/511023/C42689-P56/C42689-P56.minimised.mol

>  <scratch_subdir>  (1176) 
/opt/xchem-fragalysis-2/maxwin/BulkDock/SCRATCH/511023/C42689-P56

>  <fragmenstein_runtime>  (1176) 
9.060848236083984

>  <fragmenstein_outcome>  (1176) 
too moved

>  <fragmenstein_mode>  (1176) 
expansion

>  <fragmenstein_error>  (1176) 


$$$$
C9816-P40
     RDKit          3D

 55 59  0  0  0  0  0  0  0  0999 V2000
    4.4976   -4.5796   34.2021 O   0  0  0  0  0  0  0  0  0  0  0  0
    3.3438   -4.2601   34.1172 C   0  0  0  0  0  0  0  0  0  0  0  0
    2.7284   -4.1715   32.8020 C   0  0  0  0  0  0  0  0  0  0  0  0
    1.4015   -4.1908   32.4046 C   0  0  0  0  0  0  0  0  0  0  0  0
    1.3594   -4.0804   30.9904 C   0  0  0  0  0  0  0  0  0  0  0  0
    0.3229   -3.9929   30.0473 C   0  0  0  0  0  0  0  0  0  0  0  0
    0.6472   -3.8201   28.7007 C   0  0  0  0  0  0  0  0  0  0  0  0
    1.9775   -3.7814   28.2904 C   0  0  0  0  0  0  0  0  0  0  0  0
    3.0231   -3.8938   29.2034 C   0  0  0  0  0  0  0  0  0  0  0  0
    2.6776   -4.0205   30.5466 C   0  0  0  0  0  0  0  0  0  0  0  0
    3.4804   -4.0744   31.6554 N   0  0  0  0  0  0  0  0  0  0  0  0
    2.3785   -4.0212   35.1238 N   0  0  0  0  0  0  0  0  0  0  0  0
    2.3860   -2.5483   35.5165 C   0  0  0  0  0  0  0  0  0  0  0  0
    1.0632   -1.9925   36.0590 C   0  0  0  0  0  0  0  0  0  0  0  0
    0.7597   -2.5962   37.4156 C   0  0  0  0  0  0  0  0  0  0  0  0
    1.1031   -4.0972   37.3808 C   0  0  0  0  0  0  0  0  0  0  0  0
   -0.0414   -4.8443   36.6594 C   0  0  0  0  0  0  0  0  0  0  0  0
    0.2138   -6.2184   36.4066 O   0  0  0  0  0  0  0  0  0  0  0  0
    0.2006   -7.0213   37.5795 C   0  0  0  0  0  0  0  0  0  0  0  0
    1.5651   -7.0834   38.2587 C   0  0  0  0  0  0  0  0  0  0  0  0
    1.9573   -5.8638   38.9936 N   0  0  0  0  0  0  0  0  0  0  0  0
    2.7426   -6.0668   40.1355 C   0  0  0  0  0  0  0  0  0  0  0  0
    3.8054   -6.9806   40.1310 C   0  0  0  0  0  0  0  0  0  0  0  0
    4.5938   -7.1786   41.2659 C   0  0  0  0  0  0  0  0  0  0  0  0
    4.3047   -6.4472   42.4019 C   0  0  0  0  0  0  0  0  0  0  0  0
    3.3012   -5.5528   42.4715 N   0  0  0  0  0  0  0  0  0  0  0  0
    2.5560   -5.3908   41.3476 C   0  0  0  0  0  0  0  0  0  0  0  0
    1.2317   -4.5985   38.8421 C   0  0  0  0  0  0  0  0  0  0  0  0
    2.4509   -4.1984   36.6172 C   0  0  0  0  0  0  0  0  0  0  0  0
    0.5514   -4.2622   33.0715 H   0  0  0  0  0  0  0  0  0  0  0  0
   -0.7143   -3.9881   30.3640 H   0  0  0  0  0  0  0  0  0  0  0  0
   -0.1573   -3.6677   27.9858 H   0  0  0  0  0  0  0  0  0  0  0  0
    2.2268   -3.6171   27.2487 H   0  0  0  0  0  0  0  0  0  0  0  0
    4.0577   -3.8321   28.8812 H   0  0  0  0  0  0  0  0  0  0  0  0
    4.4918   -4.0441   31.6527 H   0  0  0  0  0  0  0  0  0  0  0  0
    2.5071   -2.0196   34.5564 H   0  0  0  0  0  0  0  0  0  0  0  0
    3.2891   -2.1994   36.0475 H   0  0  0  0  0  0  0  0  0  0  0  0
    1.1209   -0.9013   36.1430 H   0  0  0  0  0  0  0  0  0  0  0  0
    0.2536   -2.2116   35.3530 H   0  0  0  0  0  0  0  0  0  0  0  0
   -0.2837   -2.4182   37.7002 H   0  0  0  0  0  0  0  0  0  0  0  0
    1.3807   -2.0780   38.1581 H   0  0  0  0  0  0  0  0  0  0  0  0
   -0.2362   -4.3984   35.6787 H   0  0  0  0  0  0  0  0  0  0  0  0
   -0.9850   -4.7459   37.2127 H   0  0  0  0  0  0  0  0  0  0  0  0
   -0.5870   -6.7051   38.2716 H   0  0  0  0  0  0  0  0  0  0  0  0
   -0.0502   -8.0332   37.2438 H   0  0  0  0  0  0  0  0  0  0  0  0
    1.5255   -7.9344   38.9519 H   0  0  0  0  0  0  0  0  0  0  0  0
    2.3340   -7.3039   37.5090 H   0  0  0  0  0  0  0  0  0  0  0  0
    4.0524   -7.5353   39.2302 H   0  0  0  0  0  0  0  0  0  0  0  0
    5.4179   -7.8829   41.2559 H   0  0  0  0  0  0  0  0  0  0  0  0
    4.8895   -6.5639   43.3095 H   0  0  0  0  0  0  0  0  0  0  0  0
    1.7469   -4.6785   41.4766 H   0  0  0  0  0  0  0  0  0  0  0  0
    1.7757   -3.8195   39.3921 H   0  0  0  0  0  0  0  0  0  0  0  0
    0.2451   -4.6733   39.3173 H   0  0  0  0  0  0  0  0  0  0  0  0
    2.7551   -5.2528   36.6529 H   0  0  0  0  0  0  0  0  0  0  0  0
    3.3162   -3.7470   37.1349 H   0  0  0  0  0  0  0  0  0  0  0  0
  1  2  2  0
  2  3  1  0
  3  4  2  0
  4  5  1  0
  5  6  2  0
  6  7  1  0
  7  8  2  0
  8  9  1  0
  9 10  2  0
 10 11  1  0
  2 12  1  0
 12 13  1  0
 13 14  1  0
 14 15  1  0
 15 16  1  0
 16 17  1  0
 17 18  1  0
 18 19  1  0
 19 20  1  0
 20 21  1  0
 21 22  1  0
 22 23  2  0
 23 24  1  0
 24 25  2  0
 25 26  1  0
 26 27  2  0
 21 28  1  0
 16 29  1  0
 11  3  1  0
 29 12  1  0
 10  5  1  0
 28 16  1  0
 27 22  1  0
  4 30  1  0
  6 31  1  0
  7 32  1  0
  8 33  1  0
  9 34  1  0
 11 35  1  0
 13 36  1  0
 13 37  1  0
 14 38  1  0
 14 39  1  0
 15 40  1  0
 15 41  1  0
 17 42  1  0
 17 43  1  0
 19 44  1  0
 19 45  1  0
 20 46  1  0
 20 47  1  0
 23 48  1  0
 24 49  1  0
 25 50  1  0
 27 51  1  0
 28 52  1  0
 28 53  1  0
 29 54  1  0
 29 55  1  0
M  END
>  <Energy>  (1177) 
145.98363182645272

>  <compound_id>  (1177) 
9816

>  <target_id>  (1177) 
1

>  <reference_id>  (1177) 
40

>  <inspiration_ids>  (1177) 
[40, 56]

>  <energy_score>  (1177) 
16.389224851739755

>  <distance_score>  (1177) 
3.4494162967128186

>  <path>  (1177) 
/opt/xchem-fragalysis-2/maxwin/BulkDock/SCRATCH/511023/C9816-P40/C9816-P40.minimised.mol

>  <scratch_subdir>  (1177) 
/opt/xchem-fragalysis-2/maxwin/BulkDock/SCRATCH/511023/C9816-P40

>  <fragmenstein_runtime>  (1177) 
15.686148881912231

>  <fragmenstein_outcome>  (1177) 
too moved

>  <fragmenstein_mode>  (1177) 
expansion

>  <fragmenstein_error>  (1177) 


$$$$
C9816-P56
     RDKit          3D

 55 59  0  0  0  0  0  0  0  0999 V2000
   -0.6740   -2.7596   32.3370 O   0  0  0  0  0  0  0  0  0  0  0  0
    0.4505   -2.3490   32.4237 C   0  0  0  0  0  0  0  0  0  0  0  0
    1.2073   -2.1512   31.2104 C   0  0  0  0  0  0  0  0  0  0  0  0
    0.8409   -2.5122   29.9300 C   0  0  0  0  0  0  0  0  0  0  0  0
    1.9121   -2.1866   29.0734 C   0  0  0  0  0  0  0  0  0  0  0  0
    2.1081   -2.3015   27.6975 C   0  0  0  0  0  0  0  0  0  0  0  0
    3.3019   -1.8613   27.1333 C   0  0  0  0  0  0  0  0  0  0  0  0
    4.3058   -1.3308   27.9382 C   0  0  0  0  0  0  0  0  0  0  0  0
    4.1400   -1.2051   29.3177 C   0  0  0  0  0  0  0  0  0  0  0  0
    2.9241   -1.6326   29.8495 C   0  0  0  0  0  0  0  0  0  0  0  0
    2.4578   -1.5942   31.1342 N   0  0  0  0  0  0  0  0  0  0  0  0
    1.2577   -2.0880   33.5728 N   0  0  0  0  0  0  0  0  0  0  0  0
    2.0509   -3.3091   33.9294 C   0  0  0  0  0  0  0  0  0  0  0  0
    3.3969   -3.0750   34.6244 C   0  0  0  0  0  0  0  0  0  0  0  0
    3.1829   -2.4622   35.9862 C   0  0  0  0  0  0  0  0  0  0  0  0
    1.7044   -2.5979   36.3411 C   0  0  0  0  0  0  0  0  0  0  0  0
    1.4179   -1.6463   37.5416 C   0  0  0  0  0  0  0  0  0  0  0  0
    0.4516   -2.0657   38.5000 O   0  0  0  0  0  0  0  0  0  0  0  0
   -0.8337   -2.3819   37.9732 C   0  0  0  0  0  0  0  0  0  0  0  0
   -0.9413   -3.8858   37.7126 C   0  0  0  0  0  0  0  0  0  0  0  0
   -0.1176   -4.2826   36.5594 N   0  0  0  0  0  0  0  0  0  0  0  0
   -0.4769   -5.4869   35.9491 C   0  0  0  0  0  0  0  0  0  0  0  0
   -0.5384   -5.6244   34.5609 C   0  0  0  0  0  0  0  0  0  0  0  0
   -0.9060   -6.8249   33.9483 C   0  0  0  0  0  0  0  0  0  0  0  0
   -1.2568   -7.8779   34.7589 C   0  0  0  0  0  0  0  0  0  0  0  0
   -1.2465   -7.7930   36.0997 N   0  0  0  0  0  0  0  0  0  0  0  0
   -0.8600   -6.6142   36.6455 C   0  0  0  0  0  0  0  0  0  0  0  0
    1.3332   -4.0592   36.7516 C   0  0  0  0  0  0  0  0  0  0  0  0
    0.9147   -2.1363   35.0563 C   0  0  0  0  0  0  0  0  0  0  0  0
   -0.1023   -2.9639   29.6498 H   0  0  0  0  0  0  0  0  0  0  0  0
    1.3238   -2.7099   27.0843 H   0  0  0  0  0  0  0  0  0  0  0  0
    3.4507   -1.9471   26.0586 H   0  0  0  0  0  0  0  0  0  0  0  0
    5.2373   -1.0130   27.4745 H   0  0  0  0  0  0  0  0  0  0  0  0
    4.9206   -0.7770   29.9362 H   0  0  0  0  0  0  0  0  0  0  0  0
    2.9577   -1.2238   31.9299 H   0  0  0  0  0  0  0  0  0  0  0  0
    2.3679   -3.7264   32.9591 H   0  0  0  0  0  0  0  0  0  0  0  0
    1.4747   -4.1573   34.2826 H   0  0  0  0  0  0  0  0  0  0  0  0
    3.9176   -4.0351   34.7243 H   0  0  0  0  0  0  0  0  0  0  0  0
    4.0408   -2.4285   34.0166 H   0  0  0  0  0  0  0  0  0  0  0  0
    3.4650   -1.4017   35.9409 H   0  0  0  0  0  0  0  0  0  0  0  0
    3.8334   -2.9267   36.7352 H   0  0  0  0  0  0  0  0  0  0  0  0
    1.1581   -0.6339   37.2110 H   0  0  0  0  0  0  0  0  0  0  0  0
    2.3393   -1.5270   38.1253 H   0  0  0  0  0  0  0  0  0  0  0  0
   -1.5606   -2.1164   38.7485 H   0  0  0  0  0  0  0  0  0  0  0  0
   -1.0683   -1.7766   37.0913 H   0  0  0  0  0  0  0  0  0  0  0  0
   -1.9900   -4.1078   37.5115 H   0  0  0  0  0  0  0  0  0  0  0  0
   -0.6339   -4.4400   38.6084 H   0  0  0  0  0  0  0  0  0  0  0  0
   -0.3945   -4.7628   33.9196 H   0  0  0  0  0  0  0  0  0  0  0  0
   -0.9498   -6.9019   32.8685 H   0  0  0  0  0  0  0  0  0  0  0  0
   -1.5736   -8.8347   34.3537 H   0  0  0  0  0  0  0  0  0  0  0  0
   -0.8952   -6.5906   37.7281 H   0  0  0  0  0  0  0  0  0  0  0  0
    1.9162   -4.7893   36.1794 H   0  0  0  0  0  0  0  0  0  0  0  0
    1.6119   -4.2407   37.7969 H   0  0  0  0  0  0  0  0  0  0  0  0
   -0.1197   -2.5026   35.0785 H   0  0  0  0  0  0  0  0  0  0  0  0
    0.7507   -1.0573   35.2038 H   0  0  0  0  0  0  0  0  0  0  0  0
  1  2  2  0
  2  3  1  0
  3  4  2  0
  4  5  1  0
  5  6  2  0
  6  7  1  0
  7  8  2  0
  8  9  1  0
  9 10  2  0
 10 11  1  0
  2 12  1  0
 12 13  1  0
 13 14  1  0
 14 15  1  0
 15 16  1  0
 16 17  1  0
 17 18  1  0
 18 19  1  0
 19 20  1  0
 20 21  1  0
 21 22  1  0
 22 23  2  0
 23 24  1  0
 24 25  2  0
 25 26  1  0
 26 27  2  0
 21 28  1  0
 16 29  1  0
 11  3  1  0
 29 12  1  0
 10  5  1  0
 28 16  1  0
 27 22  1  0
  4 30  1  0
  6 31  1  0
  7 32  1  0
  8 33  1  0
  9 34  1  0
 11 35  1  0
 13 36  1  0
 13 37  1  0
 14 38  1  0
 14 39  1  0
 15 40  1  0
 15 41  1  0
 17 42  1  0
 17 43  1  0
 19 44  1  0
 19 45  1  0
 20 46  1  0
 20 47  1  0
 23 48  1  0
 24 49  1  0
 25 50  1  0
 27 51  1  0
 28 52  1  0
 28 53  1  0
 29 54  1  0
 29 55  1  0
M  END
>  <Energy>  (1178) 
171.61683122055518

>  <compound_id>  (1178) 
9816

>  <target_id>  (1178) 
1

>  <reference_id>  (1178) 
56

>  <inspiration_ids>  (1178) 
[40, 56]

>  <energy_score>  (1178) 
42.02242424583906

>  <distance_score>  (1178) 
4.187939032834966

>  <path>  (1178) 
/opt/xchem-fragalysis-2/maxwin/BulkDock/SCRATCH/511023/C9816-P56/C9816-P56.minimised.mol

>  <scratch_subdir>  (1178) 
/opt/xchem-fragalysis-2/maxwin/BulkDock/SCRATCH/511023/C9816-P56

>  <fragmenstein_runtime>  (1178) 
21.881371021270752

>  <fragmenstein_outcome>  (1178) 
too moved

>  <fragmenstein_mode>  (1178) 
expansion

>  <fragmenstein_error>  (1178) 


$$$$
C9817-P40
     RDKit          3D

 55 59  0  0  0  0  0  0  0  0999 V2000
    2.5104   -4.3392   33.4773 O   0  0  0  0  0  0  0  0  0  0  0  0
    1.6195   -4.5001   32.7633 C   0  0  0  0  0  0  0  0  0  0  0  0
    1.8128   -4.2016   31.3239 C   0  0  0  0  0  0  0  0  0  0  0  0
    2.4044   -2.9940   30.9550 C   0  0  0  0  0  0  0  0  0  0  0  0
    2.8225   -2.7801   29.6395 C   0  0  0  0  0  0  0  0  0  0  0  0
    2.7087   -3.8528   28.7483 C   0  0  0  0  0  0  0  0  0  0  0  0
    3.1499   -3.9736   27.4499 N   0  0  0  0  0  0  0  0  0  0  0  0
    2.9294   -5.2478   26.9956 C   0  0  0  0  0  0  0  0  0  0  0  0
    2.2771   -5.9371   27.9905 C   0  0  0  0  0  0  0  0  0  0  0  0
    2.1182   -5.0658   29.0969 C   0  0  0  0  0  0  0  0  0  0  0  0
    1.5933   -5.2226   30.3893 C   0  0  0  0  0  0  0  0  0  0  0  0
    0.1976   -5.0854   32.9721 N   0  0  0  0  0  0  0  0  0  0  0  0
   -0.4353   -5.6812   33.9448 C   0  0  0  0  0  0  0  0  0  0  0  0
    0.3982   -7.2725   33.7136 C   0  0  0  0  0  0  0  0  0  0  0  0
    1.4223   -7.2372   34.8163 C   0  0  0  0  0  0  0  0  0  0  0  0
    0.6980   -6.3230   35.7852 C   0  0  0  0  0  0  0  0  0  0  0  0
   -0.0916   -7.1311   36.8317 C   0  0  0  0  0  0  0  0  0  0  0  0
    0.7009   -7.8831   37.7401 O   0  0  0  0  0  0  0  0  0  0  0  0
    1.6617   -7.1505   38.5002 C   0  0  0  0  0  0  0  0  0  0  0  0
    1.2944   -5.6973   38.8523 C   0  0  0  0  0  0  0  0  0  0  0  0
    1.1188   -4.8099   37.6707 N   0  0  0  0  0  0  0  0  0  0  0  0
    1.2216   -3.4479   37.9772 C   0  0  0  0  0  0  0  0  0  0  0  0
    0.3572   -2.8812   38.9205 C   0  0  0  0  0  0  0  0  0  0  0  0
    0.4425   -1.5295   39.2445 C   0  0  0  0  0  0  0  0  0  0  0  0
    1.4022   -0.7627   38.6105 C   0  0  0  0  0  0  0  0  0  0  0  0
    2.2593   -1.2489   37.6933 N   0  0  0  0  0  0  0  0  0  0  0  0
    2.1448   -2.5680   37.3999 C   0  0  0  0  0  0  0  0  0  0  0  0
    1.6416   -5.2700   36.3849 C   0  0  0  0  0  0  0  0  0  0  0  0
   -0.5071   -5.5582   34.7425 C   0  0  0  0  0  0  0  0  0  0  0  0
    2.5757   -2.2236   31.7046 H   0  0  0  0  0  0  0  0  0  0  0  0
    3.2938   -1.8454   29.3519 H   0  0  0  0  0  0  0  0  0  0  0  0
    3.6355   -3.2439   26.9447 H   0  0  0  0  0  0  0  0  0  0  0  0
    3.2788   -5.5558   26.0185 H   0  0  0  0  0  0  0  0  0  0  0  0
    1.9915   -6.9747   27.9524 H   0  0  0  0  0  0  0  0  0  0  0  0
    1.1326   -6.1540   30.6916 H   0  0  0  0  0  0  0  0  0  0  0  0
   -1.4268   -5.1086   33.3443 H   0  0  0  0  0  0  0  0  0  0  0  0
   -1.2292   -6.4485   33.3290 H   0  0  0  0  0  0  0  0  0  0  0  0
    0.8168   -7.3604   32.7094 H   0  0  0  0  0  0  0  0  0  0  0  0
   -0.3194   -8.0825   33.9048 H   0  0  0  0  0  0  0  0  0  0  0  0
    1.6511   -8.2271   35.2193 H   0  0  0  0  0  0  0  0  0  0  0  0
    2.3542   -6.7961   34.4525 H   0  0  0  0  0  0  0  0  0  0  0  0
   -0.7805   -6.4913   37.3947 H   0  0  0  0  0  0  0  0  0  0  0  0
   -0.7310   -7.8587   36.3182 H   0  0  0  0  0  0  0  0  0  0  0  0
    1.8039   -7.7079   39.4330 H   0  0  0  0  0  0  0  0  0  0  0  0
    2.6219   -7.2044   37.9767 H   0  0  0  0  0  0  0  0  0  0  0  0
    2.0878   -5.3033   39.5009 H   0  0  0  0  0  0  0  0  0  0  0  0
    0.3589   -5.7070   39.4244 H   0  0  0  0  0  0  0  0  0  0  0  0
   -0.4086   -3.4865   39.3978 H   0  0  0  0  0  0  0  0  0  0  0  0
   -0.2290   -1.0869   39.9711 H   0  0  0  0  0  0  0  0  0  0  0  0
    1.5077    0.2960   38.8289 H   0  0  0  0  0  0  0  0  0  0  0  0
    2.8748   -2.9061   36.6701 H   0  0  0  0  0  0  0  0  0  0  0  0
    2.6661   -5.6423   36.5008 H   0  0  0  0  0  0  0  0  0  0  0  0
    1.7026   -4.4421   35.6775 H   0  0  0  0  0  0  0  0  0  0  0  0
   -0.5080   -4.4701   35.2904 H   0  0  0  0  0  0  0  0  0  0  0  0
   -1.6662   -5.8839   35.1435 H   0  0  0  0  0  0  0  0  0  0  0  0
  1  2  2  0
  2  3  1  0
  3  4  2  0
  4  5  1  0
  5  6  2  0
  6  7  1  0
  7  8  1  0
  8  9  2  0
  9 10  1  0
 10 11  2  0
  2 12  1  0
 12 13  1  0
 13 14  1  0
 14 15  1  0
 15 16  1  0
 16 17  1  0
 17 18  1  0
 18 19  1  0
 19 20  1  0
 20 21  1  0
 21 22  1  0
 22 23  2  0
 23 24  1  0
 24 25  2  0
 25 26  1  0
 26 27  2  0
 21 28  1  0
 16 29  1  0
 11  3  1  0
 29 12  1  0
 10  6  1  0
 28 16  1  0
 27 22  1  0
  4 30  1  0
  5 31  1  0
  7 32  1  0
  8 33  1  0
  9 34  1  0
 11 35  1  0
 13 36  1  0
 13 37  1  0
 14 38  1  0
 14 39  1  0
 15 40  1  0
 15 41  1  0
 17 42  1  0
 17 43  1  0
 19 44  1  0
 19 45  1  0
 20 46  1  0
 20 47  1  0
 23 48  1  0
 24 49  1  0
 25 50  1  0
 27 51  1  0
 28 52  1  0
 28 53  1  0
 29 54  1  0
 29 55  1  0
M  END
>  <Energy>  (1179) 
869.92338639037723

>  <compound_id>  (1179) 
9817

>  <target_id>  (1179) 
1

>  <reference_id>  (1179) 
40

>  <inspiration_ids>  (1179) 
[40, 56]

>  <energy_score>  (1179) 
712.941294814203

>  <distance_score>  (1179) 
2.5473488159057225

>  <path>  (1179) 
/opt/xchem-fragalysis-2/maxwin/BulkDock/SCRATCH/511023/C9817-P40/C9817-P40.minimised.mol

>  <scratch_subdir>  (1179) 
/opt/xchem-fragalysis-2/maxwin/BulkDock/SCRATCH/511023/C9817-P40

>  <fragmenstein_runtime>  (1179) 
15.964575290679932

>  <fragmenstein_outcome>  (1179) 
too moved

>  <fragmenstein_mode>  (1179) 
expansion

>  <fragmenstein_error>  (1179) 


$$$$
C9817-P56
     RDKit          3D

 55 59  0  0  0  0  0  0  0  0999 V2000
    2.3159   -5.9458   31.5566 O   0  0  0  0  0  0  0  0  0  0  0  0
    1.7999   -4.9345   31.6961 C   0  0  0  0  0  0  0  0  0  0  0  0
    2.3919   -3.7816   31.0039 C   0  0  0  0  0  0  0  0  0  0  0  0
    3.7765   -3.6210   31.0020 C   0  0  0  0  0  0  0  0  0  0  0  0
    4.3913   -2.8480   30.0175 C   0  0  0  0  0  0  0  0  0  0  0  0
    3.5688   -2.3101   29.0204 C   0  0  0  0  0  0  0  0  0  0  0  0
    3.9036   -1.6773   27.8439 N   0  0  0  0  0  0  0  0  0  0  0  0
    2.7718   -1.3430   27.1533 C   0  0  0  0  0  0  0  0  0  0  0  0
    1.6875   -1.7729   27.8798 C   0  0  0  0  0  0  0  0  0  0  0  0
    2.1787   -2.4209   29.0379 C   0  0  0  0  0  0  0  0  0  0  0  0
    1.5667   -3.1467   30.0655 C   0  0  0  0  0  0  0  0  0  0  0  0
    0.4803   -4.5000   32.4194 N   0  0  0  0  0  0  0  0  0  0  0  0
   -0.7405   -5.7868   33.1313 C   0  0  0  0  0  0  0  0  0  0  0  0
   -0.0770   -7.2091   33.8009 C   0  0  0  0  0  0  0  0  0  0  0  0
    0.7698   -6.6778   34.9075 C   0  0  0  0  0  0  0  0  0  0  0  0
    0.1884   -5.2757   34.9954 C   0  0  0  0  0  0  0  0  0  0  0  0
   -1.0100   -5.2978   35.9697 C   0  0  0  0  0  0  0  0  0  0  0  0
   -0.6332   -5.5311   37.3192 O   0  0  0  0  0  0  0  0  0  0  0  0
   -0.0078   -4.4346   37.9873 C   0  0  0  0  0  0  0  0  0  0  0  0
    0.0186   -3.0808   37.2689 C   0  0  0  0  0  0  0  0  0  0  0  0
    0.8220   -3.0480   36.0130 N   0  0  0  0  0  0  0  0  0  0  0  0
    1.8224   -2.0543   36.1345 C   0  0  0  0  0  0  0  0  0  0  0  0
    1.4342   -0.7111   36.1491 C   0  0  0  0  0  0  0  0  0  0  0  0
    2.3752    0.2916   36.3539 C   0  0  0  0  0  0  0  0  0  0  0  0
    3.6970   -0.0755   36.5332 C   0  0  0  0  0  0  0  0  0  0  0  0
    4.1308   -1.3501   36.5195 N   0  0  0  0  0  0  0  0  0  0  0  0
    3.1879   -2.3044   36.3174 C   0  0  0  0  0  0  0  0  0  0  0  0
    1.3065   -4.3127   35.4292 C   0  0  0  0  0  0  0  0  0  0  0  0
   -0.4459   -5.0892   33.2153 C   0  0  0  0  0  0  0  0  0  0  0  0
    4.3834   -4.1626   31.7237 H   0  0  0  0  0  0  0  0  0  0  0  0
    5.4708   -2.7507   29.9736 H   0  0  0  0  0  0  0  0  0  0  0  0
    4.8462   -1.5692   27.4905 H   0  0  0  0  0  0  0  0  0  0  0  0
    2.8419   -0.8652   26.1847 H   0  0  0  0  0  0  0  0  0  0  0  0
    0.6536   -1.6810   27.5791 H   0  0  0  0  0  0  0  0  0  0  0  0
    0.4962   -3.3205   30.0475 H   0  0  0  0  0  0  0  0  0  0  0  0
   -1.9697   -5.9341   33.0388 H   0  0  0  0  0  0  0  0  0  0  0  0
   -0.7772   -6.3900   32.0291 H   0  0  0  0  0  0  0  0  0  0  0  0
    0.4465   -7.7705   33.0303 H   0  0  0  0  0  0  0  0  0  0  0  0
   -0.9106   -7.8150   34.1754 H   0  0  0  0  0  0  0  0  0  0  0  0
    0.6754   -7.2661   35.8206 H   0  0  0  0  0  0  0  0  0  0  0  0
    1.8240   -6.6410   34.6310 H   0  0  0  0  0  0  0  0  0  0  0  0
   -1.6062   -4.3882   35.9026 H   0  0  0  0  0  0  0  0  0  0  0  0
   -1.6858   -6.1180   35.7089 H   0  0  0  0  0  0  0  0  0  0  0  0
   -0.5440   -4.3144   38.9356 H   0  0  0  0  0  0  0  0  0  0  0  0
    1.0079   -4.7314   38.2549 H   0  0  0  0  0  0  0  0  0  0  0  0
    0.3851   -2.3509   38.0049 H   0  0  0  0  0  0  0  0  0  0  0  0
   -0.9997   -2.7566   37.0243 H   0  0  0  0  0  0  0  0  0  0  0  0
    0.3915   -0.4475   35.9969 H   0  0  0  0  0  0  0  0  0  0  0  0
    2.0842    1.3352   36.3647 H   0  0  0  0  0  0  0  0  0  0  0  0
    4.4676    0.6732   36.6915 H   0  0  0  0  0  0  0  0  0  0  0  0
    3.5855   -3.3147   36.3465 H   0  0  0  0  0  0  0  0  0  0  0  0
    1.9406   -4.1012   34.5594 H   0  0  0  0  0  0  0  0  0  0  0  0
    1.9516   -4.8170   36.1578 H   0  0  0  0  0  0  0  0  0  0  0  0
   -1.4462   -4.2576   32.8815 H   0  0  0  0  0  0  0  0  0  0  0  0
   -0.4573   -4.0072   33.7656 H   0  0  0  0  0  0  0  0  0  0  0  0
  1  2  2  0
  2  3  1  0
  3  4  2  0
  4  5  1  0
  5  6  2  0
  6  7  1  0
  7  8  1  0
  8  9  2  0
  9 10  1  0
 10 11  2  0
  2 12  1  0
 12 13  1  0
 13 14  1  0
 14 15  1  0
 15 16  1  0
 16 17  1  0
 17 18  1  0
 18 19  1  0
 19 20  1  0
 20 21  1  0
 21 22  1  0
 22 23  2  0
 23 24  1  0
 24 25  2  0
 25 26  1  0
 26 27  2  0
 21 28  1  0
 16 29  1  0
 11  3  1  0
 29 12  1  0
 10  6  1  0
 28 16  1  0
 27 22  1  0
  4 30  1  0
  5 31  1  0
  7 32  1  0
  8 33  1  0
  9 34  1  0
 11 35  1  0
 13 36  1  0
 13 37  1  0
 14 38  1  0
 14 39  1  0
 15 40  1  0
 15 41  1  0
 17 42  1  0
 17 43  1  0
 19 44  1  0
 19 45  1  0
 20 46  1  0
 20 47  1  0
 23 48  1  0
 24 49  1  0
 25 50  1  0
 27 51  1  0
 28 52  1  0
 28 53  1  0
 29 54  1  0
 29 55  1  0
M  END
>  <Energy>  (1180) 
864.49609077223329

>  <compound_id>  (1180) 
9817

>  <target_id>  (1180) 
1

>  <reference_id>  (1180) 
56

>  <inspiration_ids>  (1180) 
[40, 56]

>  <energy_score>  (1180) 
707.5139991960386

>  <distance_score>  (1180) 
3.656202449788371

>  <path>  (1180) 
/opt/xchem-fragalysis-2/maxwin/BulkDock/SCRATCH/511023/C9817-P56/C9817-P56.minimised.mol

>  <scratch_subdir>  (1180) 
/opt/xchem-fragalysis-2/maxwin/BulkDock/SCRATCH/511023/C9817-P56

>  <fragmenstein_runtime>  (1180) 
12.261762142181396

>  <fragmenstein_outcome>  (1180) 
too moved

>  <fragmenstein_mode>  (1180) 
expansion

>  <fragmenstein_error>  (1180) 


$$$$
C37111-P40
     RDKit          3D

 36 38  0  0  0  0  0  0  0  0999 V2000
    2.0175   -6.2431   33.5979 O   0  0  0  0  0  0  0  0  0  0  0  0
    1.0083   -6.0032   34.2487 C   0  0  0  0  0  0  0  0  0  0  0  0
   -0.2943   -6.5756   33.8618 C   0  0  0  0  0  0  0  0  0  0  0  0
   -0.7772   -6.5474   32.6073 C   0  0  0  0  0  0  0  0  0  0  0  0
   -0.1847   -5.8362   31.4677 C   0  0  0  0  0  0  0  0  0  0  0  0
   -0.1650   -4.4394   31.4362 C   0  0  0  0  0  0  0  0  0  0  0  0
    0.4327   -3.7437   30.3794 C   0  0  0  0  0  0  0  0  0  0  0  0
    1.0620   -4.4942   29.3835 C   0  0  0  0  0  0  0  0  0  0  0  0
    1.7728   -4.0738   28.2814 N   0  0  0  0  0  0  0  0  0  0  0  0
    2.2994   -5.1530   27.6249 C   0  0  0  0  0  0  0  0  0  0  0  0
    1.8769   -6.2839   28.2840 C   0  0  0  0  0  0  0  0  0  0  0  0
    1.0704   -5.8869   29.3849 C   0  0  0  0  0  0  0  0  0  0  0  0
    0.3772   -6.5678   30.4098 C   0  0  0  0  0  0  0  0  0  0  0  0
    1.0517   -5.2674   35.3821 O   0  0  0  0  0  0  0  0  0  0  0  0
   -0.1088   -4.8890   36.1554 C   0  0  0  0  0  0  0  0  0  0  0  0
    0.3185   -3.9623   37.2983 C   0  0  0  0  0  0  0  0  0  0  0  0
    1.0133   -4.6682   38.3584 N   0  0  0  0  0  0  0  0  0  0  0  0
    0.4410   -5.4099   39.3538 C   0  0  0  0  0  0  0  0  0  0  0  0
    1.4790   -5.8540   40.1390 C   0  0  0  0  0  0  0  0  0  0  0  0
    2.6337   -5.3130   39.5445 C   0  0  0  0  0  0  0  0  0  0  0  0
    2.3533   -4.5816   38.4634 N   0  0  0  0  0  0  0  0  0  0  0  0
   -0.8134   -7.1325   34.6319 H   0  0  0  0  0  0  0  0  0  0  0  0
   -1.6847   -7.0984   32.3807 H   0  0  0  0  0  0  0  0  0  0  0  0
   -0.6119   -3.8646   32.2458 H   0  0  0  0  0  0  0  0  0  0  0  0
    0.4413   -2.6578   30.3636 H   0  0  0  0  0  0  0  0  0  0  0  0
    1.9194   -3.1022   28.0364 H   0  0  0  0  0  0  0  0  0  0  0  0
    2.9431   -5.0223   26.7646 H   0  0  0  0  0  0  0  0  0  0  0  0
    2.1502   -7.2811   27.9889 H   0  0  0  0  0  0  0  0  0  0  0  0
    0.3565   -7.6532   30.4297 H   0  0  0  0  0  0  0  0  0  0  0  0
   -0.5951   -5.7895   36.5455 H   0  0  0  0  0  0  0  0  0  0  0  0
   -0.8003   -4.3510   35.4981 H   0  0  0  0  0  0  0  0  0  0  0  0
   -0.5613   -3.4959   37.7553 H   0  0  0  0  0  0  0  0  0  0  0  0
    0.9832   -3.1708   36.9342 H   0  0  0  0  0  0  0  0  0  0  0  0
   -0.6292   -5.5503   39.4244 H   0  0  0  0  0  0  0  0  0  0  0  0
    1.4128   -6.4698   41.0243 H   0  0  0  0  0  0  0  0  0  0  0  0
    3.6653   -5.4154   39.8558 H   0  0  0  0  0  0  0  0  0  0  0  0
  1  2  2  0
  2  3  1  0
  3  4  2  3
  4  5  1  0
  5  6  2  0
  6  7  1  0
  7  8  2  0
  8  9  1  0
  9 10  1  0
 10 11  2  0
 11 12  1  0
 12 13  2  0
  2 14  1  0
 14 15  1  0
 15 16  1  0
 16 17  1  0
 17 18  1  0
 18 19  2  0
 19 20  1  0
 20 21  2  0
 13  5  1  0
 21 17  1  0
 12  8  1  0
  3 22  1  0
  4 23  1  0
  6 24  1  0
  7 25  1  0
  9 26  1  0
 10 27  1  0
 11 28  1  0
 13 29  1  0
 15 30  1  0
 15 31  1  0
 16 32  1  0
 16 33  1  0
 18 34  1  0
 19 35  1  0
 20 36  1  0
M  END
>  <Energy>  (1181) 
37.414536453875655

>  <compound_id>  (1181) 
37111

>  <target_id>  (1181) 
1

>  <reference_id>  (1181) 
40

>  <inspiration_ids>  (1181) 
[40, 56]

>  <energy_score>  (1181) 
-4.486888756397406

>  <distance_score>  (1181) 
1.3893333808529222

>  <path>  (1181) 
/opt/xchem-fragalysis-2/maxwin/BulkDock/SCRATCH/511023/C37111-P40/C37111-P40.minimised.mol

>  <scratch_subdir>  (1181) 
/opt/xchem-fragalysis-2/maxwin/BulkDock/SCRATCH/511023/C37111-P40

>  <fragmenstein_runtime>  (1181) 
1.8465416431427002

>  <fragmenstein_outcome>  (1181) 
too moved

>  <fragmenstein_mode>  (1181) 
expansion

>  <fragmenstein_error>  (1181) 


$$$$
C37111-P56
     RDKit          3D

 36 38  0  0  0  0  0  0  0  0999 V2000
   -0.4212   -6.7555   36.2663 O   0  0  0  0  0  0  0  0  0  0  0  0
   -0.4732   -5.6153   35.8367 C   0  0  0  0  0  0  0  0  0  0  0  0
   -0.3995   -5.2166   34.4209 C   0  0  0  0  0  0  0  0  0  0  0  0
   -0.0803   -6.0739   33.4419 C   0  0  0  0  0  0  0  0  0  0  0  0
    0.0051   -5.6643   32.0354 C   0  0  0  0  0  0  0  0  0  0  0  0
    0.3250   -4.3522   31.6530 C   0  0  0  0  0  0  0  0  0  0  0  0
    0.3573   -3.9598   30.3150 C   0  0  0  0  0  0  0  0  0  0  0  0
    0.0570   -4.9378   29.3730 C   0  0  0  0  0  0  0  0  0  0  0  0
   -0.0520   -4.8370   28.0109 N   0  0  0  0  0  0  0  0  0  0  0  0
   -0.3795   -6.0556   27.4700 C   0  0  0  0  0  0  0  0  0  0  0  0
   -0.4086   -6.9703   28.4943 C   0  0  0  0  0  0  0  0  0  0  0  0
   -0.2042   -6.2634   29.7047 C   0  0  0  0  0  0  0  0  0  0  0  0
   -0.2136   -6.6379   31.0554 C   0  0  0  0  0  0  0  0  0  0  0  0
   -0.5724   -4.4677   36.5480 O   0  0  0  0  0  0  0  0  0  0  0  0
   -0.3617   -4.5297   37.9677 C   0  0  0  0  0  0  0  0  0  0  0  0
    0.8678   -3.6861   38.2790 C   0  0  0  0  0  0  0  0  0  0  0  0
    1.2648   -3.6173   39.6672 N   0  0  0  0  0  0  0  0  0  0  0  0
    0.5799   -4.0259   40.7775 C   0  0  0  0  0  0  0  0  0  0  0  0
    1.3567   -3.6784   41.8581 C   0  0  0  0  0  0  0  0  0  0  0  0
    2.4850   -3.0551   41.2995 C   0  0  0  0  0  0  0  0  0  0  0  0
    2.4356   -3.0152   39.9671 N   0  0  0  0  0  0  0  0  0  0  0  0
   -0.6358   -4.1772   34.2231 H   0  0  0  0  0  0  0  0  0  0  0  0
    0.1412   -7.1148   33.6659 H   0  0  0  0  0  0  0  0  0  0  0  0
    0.5624   -3.5990   32.4013 H   0  0  0  0  0  0  0  0  0  0  0  0
    0.5852   -2.9372   30.0329 H   0  0  0  0  0  0  0  0  0  0  0  0
    0.0912   -3.9678   27.5156 H   0  0  0  0  0  0  0  0  0  0  0  0
   -0.4971   -6.1960   26.4057 H   0  0  0  0  0  0  0  0  0  0  0  0
   -0.5469   -8.0364   28.4031 H   0  0  0  0  0  0  0  0  0  0  0  0
   -0.4010   -7.6719   31.3273 H   0  0  0  0  0  0  0  0  0  0  0  0
   -0.2485   -5.5562   38.3273 H   0  0  0  0  0  0  0  0  0  0  0  0
   -1.2523   -4.1071   38.4449 H   0  0  0  0  0  0  0  0  0  0  0  0
    0.6994   -2.6538   37.9473 H   0  0  0  0  0  0  0  0  0  0  0  0
    1.7258   -4.0577   37.7077 H   0  0  0  0  0  0  0  0  0  0  0  0
   -0.3856   -4.5078   40.7223 H   0  0  0  0  0  0  0  0  0  0  0  0
    1.1322   -3.8381   42.9026 H   0  0  0  0  0  0  0  0  0  0  0  0
    3.3391   -2.6241   41.8052 H   0  0  0  0  0  0  0  0  0  0  0  0
  1  2  2  0
  2  3  1  0
  3  4  2  3
  4  5  1  0
  5  6  2  0
  6  7  1  0
  7  8  2  0
  8  9  1  0
  9 10  1  0
 10 11  2  0
 11 12  1  0
 12 13  2  0
  2 14  1  0
 14 15  1  0
 15 16  1  0
 16 17  1  0
 17 18  1  0
 18 19  2  0
 19 20  1  0
 20 21  2  0
 13  5  1  0
 21 17  1  0
 12  8  1  0
  3 22  1  0
  4 23  1  0
  6 24  1  0
  7 25  1  0
  9 26  1  0
 10 27  1  0
 11 28  1  0
 13 29  1  0
 15 30  1  0
 15 31  1  0
 16 32  1  0
 16 33  1  0
 18 34  1  0
 19 35  1  0
 20 36  1  0
M  END
>  <Energy>  (1182) 
19.029144275430873

>  <compound_id>  (1182) 
37111

>  <target_id>  (1182) 
1

>  <reference_id>  (1182) 
56

>  <inspiration_ids>  (1182) 
[40, 56]

>  <energy_score>  (1182) 
-22.87228093484233

>  <distance_score>  (1182) 
1.7785596018759804

>  <path>  (1182) 
/opt/xchem-fragalysis-2/maxwin/BulkDock/SCRATCH/511023/C37111-P56/C37111-P56.minimised.mol

>  <scratch_subdir>  (1182) 
/opt/xchem-fragalysis-2/maxwin/BulkDock/SCRATCH/511023/C37111-P56

>  <fragmenstein_runtime>  (1182) 
1.9930658340454102

>  <fragmenstein_outcome>  (1182) 
too moved

>  <fragmenstein_mode>  (1182) 
expansion

>  <fragmenstein_error>  (1182) 


$$$$
C26232-P40
     RDKit          3D

 33 35  0  0  0  0  0  0  0  0999 V2000
    0.5145   -3.6474   34.1309 C   0  0  0  0  0  0  0  0  0  0  0  0
   -0.1860   -4.8045   33.5892 N   0  0  0  0  0  0  0  0  0  0  0  0
   -0.7198   -4.5840   32.2347 C   0  0  0  0  0  0  0  0  0  0  0  0
    0.2373   -4.4328   31.0745 C   0  0  0  0  0  0  0  0  0  0  0  0
    0.8590   -3.2067   30.8330 C   0  0  0  0  0  0  0  0  0  0  0  0
    1.7124   -3.0145   29.7409 C   0  0  0  0  0  0  0  0  0  0  0  0
    1.9697   -4.1103   28.9157 C   0  0  0  0  0  0  0  0  0  0  0  0
    2.7687   -4.2209   27.8016 N   0  0  0  0  0  0  0  0  0  0  0  0
    2.7606   -5.5122   27.3422 C   0  0  0  0  0  0  0  0  0  0  0  0
    1.9329   -6.2352   28.1675 C   0  0  0  0  0  0  0  0  0  0  0  0
    1.3892   -5.3517   29.1288 C   0  0  0  0  0  0  0  0  0  0  0  0
    0.4616   -5.4872   30.1718 C   0  0  0  0  0  0  0  0  0  0  0  0
    0.6020   -6.0324   33.7767 C   0  0  0  0  0  0  0  0  0  0  0  0
   -0.1921   -7.1754   33.2639 C   0  0  0  0  0  0  0  0  0  0  0  0
   -1.4155   -7.6535   33.7472 C   0  0  0  0  0  0  0  0  0  0  0  0
   -1.9111   -8.3626   32.6865 C   0  0  0  0  0  0  0  0  0  0  0  0
   -1.0048   -8.4403   31.7005 O   0  0  0  0  0  0  0  0  0  0  0  0
    0.0992   -7.7195   32.0797 N   0  0  0  0  0  0  0  0  0  0  0  0
   -0.0945   -2.7411   34.0412 H   0  0  0  0  0  0  0  0  0  0  0  0
    0.7044   -3.7853   35.2014 H   0  0  0  0  0  0  0  0  0  0  0  0
    1.4779   -3.4726   33.6408 H   0  0  0  0  0  0  0  0  0  0  0  0
   -1.3587   -3.6895   32.2580 H   0  0  0  0  0  0  0  0  0  0  0  0
   -1.4226   -5.3777   31.9780 H   0  0  0  0  0  0  0  0  0  0  0  0
    0.6595   -2.3573   31.4844 H   0  0  0  0  0  0  0  0  0  0  0  0
    2.1646   -2.0448   29.5570 H   0  0  0  0  0  0  0  0  0  0  0  0
    3.3111   -3.4606   27.4129 H   0  0  0  0  0  0  0  0  0  0  0  0
    3.3627   -5.8026   26.4901 H   0  0  0  0  0  0  0  0  0  0  0  0
    1.7253   -7.2869   28.0893 H   0  0  0  0  0  0  0  0  0  0  0  0
   -0.0777   -6.4180   30.2537 H   0  0  0  0  0  0  0  0  0  0  0  0
    0.8043   -6.1924   34.8427 H   0  0  0  0  0  0  0  0  0  0  0  0
    1.5701   -5.9669   33.2643 H   0  0  0  0  0  0  0  0  0  0  0  0
   -1.9161   -7.3970   34.6653 H   0  0  0  0  0  0  0  0  0  0  0  0
   -2.8445   -8.8446   32.4858 H   0  0  0  0  0  0  0  0  0  0  0  0
  1  2  1  0
  2  3  1  0
  3  4  1  0
  4  5  2  0
  5  6  1  0
  6  7  2  0
  7  8  1  0
  8  9  1  0
  9 10  2  0
 10 11  1  0
 11 12  2  0
  2 13  1  0
 13 14  1  0
 14 15  1  0
 15 16  2  0
 16 17  1  0
 17 18  1  0
 12  4  1  0
 18 14  2  0
 11  7  1  0
  1 19  1  0
  1 20  1  0
  1 21  1  0
  3 22  1  0
  3 23  1  0
  5 24  1  0
  6 25  1  0
  8 26  1  0
  9 27  1  0
 10 28  1  0
 12 29  1  0
 13 30  1  0
 13 31  1  0
 15 32  1  0
 16 33  1  0
M  END
>  <Energy>  (1183) 
46.559021601222227

>  <compound_id>  (1183) 
26232

>  <target_id>  (1183) 
1

>  <reference_id>  (1183) 
40

>  <inspiration_ids>  (1183) 
[40, 56]

>  <energy_score>  (1183) 
-15.910845708377167

>  <distance_score>  (1183) 
1.3330181106734327

>  <path>  (1183) 
/opt/xchem-fragalysis-2/maxwin/BulkDock/SCRATCH/511023/C26232-P40/C26232-P40.minimised.mol

>  <scratch_subdir>  (1183) 
/opt/xchem-fragalysis-2/maxwin/BulkDock/SCRATCH/511023/C26232-P40

>  <fragmenstein_runtime>  (1183) 
1.633720874786377

>  <fragmenstein_outcome>  (1183) 
too moved

>  <fragmenstein_mode>  (1183) 
expansion

>  <fragmenstein_error>  (1183) 


$$$$
C26232-P56
     RDKit          3D

 33 35  0  0  0  0  0  0  0  0999 V2000
   -0.1224   -3.8969   34.9959 C   0  0  0  0  0  0  0  0  0  0  0  0
   -0.2546   -5.1013   34.1750 N   0  0  0  0  0  0  0  0  0  0  0  0
    0.9527   -5.3208   33.3760 C   0  0  0  0  0  0  0  0  0  0  0  0
    0.6841   -5.1013   31.9170 C   0  0  0  0  0  0  0  0  0  0  0  0
    0.7006   -3.8035   31.3998 C   0  0  0  0  0  0  0  0  0  0  0  0
    0.4492   -3.5657   30.0573 C   0  0  0  0  0  0  0  0  0  0  0  0
    0.1306   -4.6746   29.2793 C   0  0  0  0  0  0  0  0  0  0  0  0
   -0.1673   -4.7322   27.9519 N   0  0  0  0  0  0  0  0  0  0  0  0
   -0.4590   -6.0135   27.5643 C   0  0  0  0  0  0  0  0  0  0  0  0
   -0.3235   -6.8144   28.6736 C   0  0  0  0  0  0  0  0  0  0  0  0
    0.0650   -5.9752   29.7542 C   0  0  0  0  0  0  0  0  0  0  0  0
    0.3955   -6.1974   31.0899 C   0  0  0  0  0  0  0  0  0  0  0  0
   -0.5159   -6.2627   35.0303 C   0  0  0  0  0  0  0  0  0  0  0  0
   -1.0131   -7.4142   34.2197 C   0  0  0  0  0  0  0  0  0  0  0  0
   -1.7752   -7.4231   33.0362 C   0  0  0  0  0  0  0  0  0  0  0  0
   -2.0522   -8.7362   32.7958 C   0  0  0  0  0  0  0  0  0  0  0  0
   -1.4393   -9.4843   33.7319 O   0  0  0  0  0  0  0  0  0  0  0  0
   -0.7505   -8.6629   34.6001 N   0  0  0  0  0  0  0  0  0  0  0  0
    0.0284   -3.0125   34.3679 H   0  0  0  0  0  0  0  0  0  0  0  0
   -1.0348   -3.7136   35.5737 H   0  0  0  0  0  0  0  0  0  0  0  0
    0.7144   -3.9678   35.7008 H   0  0  0  0  0  0  0  0  0  0  0  0
    1.7822   -4.6707   33.6892 H   0  0  0  0  0  0  0  0  0  0  0  0
    1.3477   -6.3244   33.5189 H   0  0  0  0  0  0  0  0  0  0  0  0
    0.9254   -2.9617   32.0511 H   0  0  0  0  0  0  0  0  0  0  0  0
    0.4811   -2.5623   29.6460 H   0  0  0  0  0  0  0  0  0  0  0  0
   -0.1799   -3.8942   27.3959 H   0  0  0  0  0  0  0  0  0  0  0  0
   -0.7008   -6.2591   26.5404 H   0  0  0  0  0  0  0  0  0  0  0  0
   -0.4286   -7.8895   28.7100 H   0  0  0  0  0  0  0  0  0  0  0  0
    0.4292   -7.2087   31.4818 H   0  0  0  0  0  0  0  0  0  0  0  0
   -1.3070   -6.0269   35.7544 H   0  0  0  0  0  0  0  0  0  0  0  0
    0.3712   -6.5419   35.6146 H   0  0  0  0  0  0  0  0  0  0  0  0
   -2.0704   -6.5654   32.4611 H   0  0  0  0  0  0  0  0  0  0  0  0
   -2.6205   -9.2845   32.0650 H   0  0  0  0  0  0  0  0  0  0  0  0
  1  2  1  0
  2  3  1  0
  3  4  1  0
  4  5  2  0
  5  6  1  0
  6  7  2  0
  7  8  1  0
  8  9  1  0
  9 10  2  0
 10 11  1  0
 11 12  2  0
  2 13  1  0
 13 14  1  0
 14 15  1  0
 15 16  2  0
 16 17  1  0
 17 18  1  0
 12  4  1  0
 18 14  2  0
 11  7  1  0
  1 19  1  0
  1 20  1  0
  1 21  1  0
  3 22  1  0
  3 23  1  0
  5 24  1  0
  6 25  1  0
  8 26  1  0
  9 27  1  0
 10 28  1  0
 12 29  1  0
 13 30  1  0
 13 31  1  0
 15 32  1  0
 16 33  1  0
M  END
>  <Energy>  (1184) 
40.377099243122395

>  <compound_id>  (1184) 
26232

>  <target_id>  (1184) 
1

>  <reference_id>  (1184) 
56

>  <inspiration_ids>  (1184) 
[40, 56]

>  <energy_score>  (1184) 
-22.09276806647594

>  <distance_score>  (1184) 
1.7620930063742186

>  <path>  (1184) 
/opt/xchem-fragalysis-2/maxwin/BulkDock/SCRATCH/511023/C26232-P56/C26232-P56.minimised.mol

>  <scratch_subdir>  (1184) 
/opt/xchem-fragalysis-2/maxwin/BulkDock/SCRATCH/511023/C26232-P56

>  <fragmenstein_runtime>  (1184) 
1.7292802333831787

>  <fragmenstein_outcome>  (1184) 
too moved

>  <fragmenstein_mode>  (1184) 
expansion

>  <fragmenstein_error>  (1184) 


$$$$
C47082-P40
     RDKit          3D

 43 46  0  0  0  0  0  0  0  0999 V2000
   -0.8623   -4.1983   33.8495 C   0  0  0  0  0  0  0  0  0  0  0  0
   -0.9546   -5.6353   33.5533 N   0  0  0  0  0  0  0  0  0  0  0  0
    0.1051   -6.1143   32.6521 C   0  0  0  0  0  0  0  0  0  0  0  0
    0.3144   -5.4773   31.2758 C   0  0  0  0  0  0  0  0  0  0  0  0
    0.4826   -4.0979   31.0872 C   0  0  0  0  0  0  0  0  0  0  0  0
    0.9934   -3.5466   29.9100 C   0  0  0  0  0  0  0  0  0  0  0  0
    1.4823   -4.4350   28.9638 C   0  0  0  0  0  0  0  0  0  0  0  0
    2.1904   -4.1782   27.8151 N   0  0  0  0  0  0  0  0  0  0  0  0
    2.5840   -5.3532   27.2400 C   0  0  0  0  0  0  0  0  0  0  0  0
    2.0847   -6.3754   28.0137 C   0  0  0  0  0  0  0  0  0  0  0  0
    1.3519   -5.8126   29.0909 C   0  0  0  0  0  0  0  0  0  0  0  0
    0.6553   -6.3314   30.2047 C   0  0  0  0  0  0  0  0  0  0  0  0
   -0.9120   -6.4180   34.8409 C   0  0  0  0  0  0  0  0  0  0  0  0
    0.0668   -5.8948   35.8688 C   0  0  0  0  0  0  0  0  0  0  0  0
    1.3541   -5.7668   35.6235 N   0  0  0  0  0  0  0  0  0  0  0  0
    1.8548   -4.8146   36.4679 C   0  0  0  0  0  0  0  0  0  0  0  0
    1.0185   -4.3774   37.4721 C   0  0  0  0  0  0  0  0  0  0  0  0
   -0.4747   -5.1765   37.3603 S   0  0  0  0  0  0  0  0  0  0  0  0
    1.3228   -3.2738   38.4248 C   0  0  0  0  0  0  0  0  0  0  0  0
    2.7846   -2.8139   38.2675 C   0  0  0  0  0  0  0  0  0  0  0  0
    3.2648   -2.8224   36.8069 C   0  0  0  0  0  0  0  0  0  0  0  0
    3.1915   -4.2329   36.2168 C   0  0  0  0  0  0  0  0  0  0  0  0
   -1.3588   -3.6242   33.0615 H   0  0  0  0  0  0  0  0  0  0  0  0
   -1.3811   -3.9115   34.7691 H   0  0  0  0  0  0  0  0  0  0  0  0
    0.1710   -3.8532   33.9692 H   0  0  0  0  0  0  0  0  0  0  0  0
   -0.1011   -7.1789   32.4755 H   0  0  0  0  0  0  0  0  0  0  0  0
    1.0858   -6.0738   33.1426 H   0  0  0  0  0  0  0  0  0  0  0  0
    0.2970   -3.3803   31.8748 H   0  0  0  0  0  0  0  0  0  0  0  0
    1.1148   -2.4726   29.8057 H   0  0  0  0  0  0  0  0  0  0  0  0
    2.4331   -3.2488   27.4947 H   0  0  0  0  0  0  0  0  0  0  0  0
    3.2046   -5.3631   26.3526 H   0  0  0  0  0  0  0  0  0  0  0  0
    2.2658   -7.4143   27.8052 H   0  0  0  0  0  0  0  0  0  0  0  0
    0.5350   -7.4057   30.3099 H   0  0  0  0  0  0  0  0  0  0  0  0
   -1.9159   -6.4096   35.2676 H   0  0  0  0  0  0  0  0  0  0  0  0
   -0.6955   -7.4747   34.6401 H   0  0  0  0  0  0  0  0  0  0  0  0
    0.6592   -2.4266   38.2117 H   0  0  0  0  0  0  0  0  0  0  0  0
    1.1412   -3.5844   39.4596 H   0  0  0  0  0  0  0  0  0  0  0  0
    3.4335   -3.4778   38.8541 H   0  0  0  0  0  0  0  0  0  0  0  0
    2.8973   -1.8105   38.6938 H   0  0  0  0  0  0  0  0  0  0  0  0
    4.2963   -2.4563   36.7533 H   0  0  0  0  0  0  0  0  0  0  0  0
    2.6462   -2.1333   36.2176 H   0  0  0  0  0  0  0  0  0  0  0  0
    3.9548   -4.8714   36.6766 H   0  0  0  0  0  0  0  0  0  0  0  0
    3.3994   -4.1929   35.1418 H   0  0  0  0  0  0  0  0  0  0  0  0
  1  2  1  0
  2  3  1  0
  3  4  1  0
  4  5  2  0
  5  6  1  0
  6  7  2  0
  7  8  1  0
  8  9  1  0
  9 10  2  0
 10 11  1  0
 11 12  2  0
  2 13  1  0
 13 14  1  0
 14 15  2  0
 15 16  1  0
 16 17  2  0
 17 18  1  0
 17 19  1  0
 19 20  1  0
 20 21  1  0
 21 22  1  0
 12  4  1  0
 18 14  1  0
 11  7  1  0
 22 16  1  0
  1 23  1  0
  1 24  1  0
  1 25  1  0
  3 26  1  0
  3 27  1  0
  5 28  1  0
  6 29  1  0
  8 30  1  0
  9 31  1  0
 10 32  1  0
 12 33  1  0
 13 34  1  0
 13 35  1  0
 19 36  1  0
 19 37  1  0
 20 38  1  0
 20 39  1  0
 21 40  1  0
 21 41  1  0
 22 42  1  0
 22 43  1  0
M  END
>  <Energy>  (1185) 
73.838701458810021

>  <compound_id>  (1185) 
47082

>  <target_id>  (1185) 
1

>  <reference_id>  (1185) 
40

>  <inspiration_ids>  (1185) 
[40, 56]

>  <energy_score>  (1185) 
-43.39453045560873

>  <distance_score>  (1185) 
1.7258122141204841

>  <path>  (1185) 
/opt/xchem-fragalysis-2/maxwin/BulkDock/SCRATCH/511023/C47082-P40/C47082-P40.minimised.mol

>  <scratch_subdir>  (1185) 
/opt/xchem-fragalysis-2/maxwin/BulkDock/SCRATCH/511023/C47082-P40

>  <fragmenstein_runtime>  (1185) 
3.4991183280944824

>  <fragmenstein_outcome>  (1185) 
too moved

>  <fragmenstein_mode>  (1185) 
expansion

>  <fragmenstein_error>  (1185) 


$$$$
C47082-P56
     RDKit          3D

 43 46  0  0  0  0  0  0  0  0999 V2000
   -0.6931   -3.9528   34.1311 C   0  0  0  0  0  0  0  0  0  0  0  0
   -0.3836   -5.3681   34.2733 N   0  0  0  0  0  0  0  0  0  0  0  0
   -0.5644   -6.3015   33.1926 C   0  0  0  0  0  0  0  0  0  0  0  0
   -0.1310   -5.8865   31.8103 C   0  0  0  0  0  0  0  0  0  0  0  0
    0.5081   -4.6818   31.4869 C   0  0  0  0  0  0  0  0  0  0  0  0
    0.6042   -4.2232   30.1778 C   0  0  0  0  0  0  0  0  0  0  0  0
    0.1303   -5.0850   29.2016 C   0  0  0  0  0  0  0  0  0  0  0  0
    0.0133   -4.9050   27.8526 N   0  0  0  0  0  0  0  0  0  0  0  0
   -0.3696   -6.0794   27.2530 C   0  0  0  0  0  0  0  0  0  0  0  0
   -0.4512   -7.0348   28.2312 C   0  0  0  0  0  0  0  0  0  0  0  0
   -0.2873   -6.3827   29.4672 C   0  0  0  0  0  0  0  0  0  0  0  0
   -0.4288   -6.7923   30.7891 C   0  0  0  0  0  0  0  0  0  0  0  0
   -0.6635   -5.9128   35.6077 C   0  0  0  0  0  0  0  0  0  0  0  0
    0.1990   -5.1834   36.5797 C   0  0  0  0  0  0  0  0  0  0  0  0
    1.4295   -4.8847   36.2369 N   0  0  0  0  0  0  0  0  0  0  0  0
    1.8082   -3.7989   36.9413 C   0  0  0  0  0  0  0  0  0  0  0  0
    1.0155   -3.4768   38.0195 C   0  0  0  0  0  0  0  0  0  0  0  0
   -0.3722   -4.4625   38.0369 S   0  0  0  0  0  0  0  0  0  0  0  0
    1.3259   -2.3894   38.9752 C   0  0  0  0  0  0  0  0  0  0  0  0
    2.3106   -1.4004   38.3207 C   0  0  0  0  0  0  0  0  0  0  0  0
    3.4727   -2.1052   37.6023 C   0  0  0  0  0  0  0  0  0  0  0  0
    2.9784   -3.0220   36.4891 C   0  0  0  0  0  0  0  0  0  0  0  0
   -1.2594   -3.7169   33.2246 H   0  0  0  0  0  0  0  0  0  0  0  0
   -1.2561   -3.5424   34.9777 H   0  0  0  0  0  0  0  0  0  0  0  0
    0.2334   -3.3684   34.1101 H   0  0  0  0  0  0  0  0  0  0  0  0
   -1.6263   -6.5730   33.1413 H   0  0  0  0  0  0  0  0  0  0  0  0
   -0.0117   -7.2213   33.4259 H   0  0  0  0  0  0  0  0  0  0  0  0
    0.9238   -4.0491   32.2628 H   0  0  0  0  0  0  0  0  0  0  0  0
    1.0208   -3.2495   29.9466 H   0  0  0  0  0  0  0  0  0  0  0  0
    0.2503   -4.0312   27.4047 H   0  0  0  0  0  0  0  0  0  0  0  0
   -0.4652   -6.1811   26.1827 H   0  0  0  0  0  0  0  0  0  0  0  0
   -0.6001   -8.0912   28.0948 H   0  0  0  0  0  0  0  0  0  0  0  0
   -0.7862   -7.7896   31.0208 H   0  0  0  0  0  0  0  0  0  0  0  0
   -1.7238   -5.8367   35.8573 H   0  0  0  0  0  0  0  0  0  0  0  0
   -0.3920   -6.9745   35.6633 H   0  0  0  0  0  0  0  0  0  0  0  0
    0.4212   -1.8546   39.2844 H   0  0  0  0  0  0  0  0  0  0  0  0
    1.7833   -2.8188   39.8746 H   0  0  0  0  0  0  0  0  0  0  0  0
    2.7056   -0.7250   39.0883 H   0  0  0  0  0  0  0  0  0  0  0  0
    1.7717   -0.7753   37.5964 H   0  0  0  0  0  0  0  0  0  0  0  0
    4.0421   -2.6832   38.3405 H   0  0  0  0  0  0  0  0  0  0  0  0
    4.1603   -1.3599   37.1866 H   0  0  0  0  0  0  0  0  0  0  0  0
    3.7872   -3.6728   36.1433 H   0  0  0  0  0  0  0  0  0  0  0  0
    2.6761   -2.4118   35.6286 H   0  0  0  0  0  0  0  0  0  0  0  0
  1  2  1  0
  2  3  1  0
  3  4  1  0
  4  5  2  0
  5  6  1  0
  6  7  2  0
  7  8  1  0
  8  9  1  0
  9 10  2  0
 10 11  1  0
 11 12  2  0
  2 13  1  0
 13 14  1  0
 14 15  2  0
 15 16  1  0
 16 17  2  0
 17 18  1  0
 17 19  1  0
 19 20  1  0
 20 21  1  0
 21 22  1  0
 12  4  1  0
 18 14  1  0
 11  7  1  0
 22 16  1  0
  1 23  1  0
  1 24  1  0
  1 25  1  0
  3 26  1  0
  3 27  1  0
  5 28  1  0
  6 29  1  0
  8 30  1  0
  9 31  1  0
 10 32  1  0
 12 33  1  0
 13 34  1  0
 13 35  1  0
 19 36  1  0
 19 37  1  0
 20 38  1  0
 20 39  1  0
 21 40  1  0
 21 41  1  0
 22 42  1  0
 22 43  1  0
M  END
>  <Energy>  (1186) 
83.990708251732968

>  <compound_id>  (1186) 
47082

>  <target_id>  (1186) 
1

>  <reference_id>  (1186) 
56

>  <inspiration_ids>  (1186) 
[40, 56]

>  <energy_score>  (1186) 
-33.24252366268766

>  <distance_score>  (1186) 
1.9833779879866271

>  <path>  (1186) 
/opt/xchem-fragalysis-2/maxwin/BulkDock/SCRATCH/511023/C47082-P56/C47082-P56.minimised.mol

>  <scratch_subdir>  (1186) 
/opt/xchem-fragalysis-2/maxwin/BulkDock/SCRATCH/511023/C47082-P56

>  <fragmenstein_runtime>  (1186) 
6.134553670883179

>  <fragmenstein_outcome>  (1186) 
too moved

>  <fragmenstein_mode>  (1186) 
expansion

>  <fragmenstein_error>  (1186) 


$$$$
C47083-P40
     RDKit          3D

 47 50  0  0  0  0  0  0  0  0999 V2000
   -0.4365   -8.1270   29.8338 C   0  0  0  0  0  0  0  0  0  0  0  0
    0.8440   -7.5598   29.7031 O   0  0  0  0  0  0  0  0  0  0  0  0
    0.8552   -6.1995   29.6484 C   0  0  0  0  0  0  0  0  0  0  0  0
    0.1881   -5.3377   30.5417 C   0  0  0  0  0  0  0  0  0  0  0  0
   -0.3549   -5.8230   31.8698 C   0  0  0  0  0  0  0  0  0  0  0  0
    0.0426   -5.0629   33.0489 N   0  0  0  0  0  0  0  0  0  0  0  0
   -0.6886   -3.8318   33.3133 C   0  0  0  0  0  0  0  0  0  0  0  0
    1.5144   -4.8794   33.1452 C   0  0  0  0  0  0  0  0  0  0  0  0
    1.9110   -4.5576   34.5520 C   0  0  0  0  0  0  0  0  0  0  0  0
    1.7414   -5.4097   35.5379 N   0  0  0  0  0  0  0  0  0  0  0  0
    1.6409   -4.6965   36.6965 C   0  0  0  0  0  0  0  0  0  0  0  0
    1.9988   -3.3674   36.6232 C   0  0  0  0  0  0  0  0  0  0  0  0
    2.4080   -2.9715   35.0176 S   0  0  0  0  0  0  0  0  0  0  0  0
    1.8646   -2.3812   37.7310 C   0  0  0  0  0  0  0  0  0  0  0  0
    1.3913   -3.0724   39.0252 C   0  0  0  0  0  0  0  0  0  0  0  0
    0.4025   -4.2239   38.7740 C   0  0  0  0  0  0  0  0  0  0  0  0
    1.0474   -5.3116   37.9064 C   0  0  0  0  0  0  0  0  0  0  0  0
    0.1005   -3.9766   30.2099 C   0  0  0  0  0  0  0  0  0  0  0  0
    0.8334   -3.4164   29.1655 C   0  0  0  0  0  0  0  0  0  0  0  0
    1.6589   -4.2721   28.4460 C   0  0  0  0  0  0  0  0  0  0  0  0
    2.5686   -3.9932   27.4559 N   0  0  0  0  0  0  0  0  0  0  0  0
    3.0877   -5.1540   26.9520 C   0  0  0  0  0  0  0  0  0  0  0  0
    2.5705   -6.1931   27.6863 C   0  0  0  0  0  0  0  0  0  0  0  0
    1.6697   -5.6464   28.6429 C   0  0  0  0  0  0  0  0  0  0  0  0
   -1.2243   -7.4805   29.4371 H   0  0  0  0  0  0  0  0  0  0  0  0
   -0.4262   -9.0610   29.2700 H   0  0  0  0  0  0  0  0  0  0  0  0
   -0.6494   -8.3884   30.8729 H   0  0  0  0  0  0  0  0  0  0  0  0
    0.0148   -6.8339   32.0641 H   0  0  0  0  0  0  0  0  0  0  0  0
   -1.4392   -5.9185   31.8054 H   0  0  0  0  0  0  0  0  0  0  0  0
   -0.1845   -2.9421   32.9207 H   0  0  0  0  0  0  0  0  0  0  0  0
   -1.6892   -3.8495   32.8791 H   0  0  0  0  0  0  0  0  0  0  0  0
   -0.8119   -3.6918   34.3925 H   0  0  0  0  0  0  0  0  0  0  0  0
    1.8775   -4.1152   32.4483 H   0  0  0  0  0  0  0  0  0  0  0  0
    2.0174   -5.8187   32.8847 H   0  0  0  0  0  0  0  0  0  0  0  0
    2.8125   -1.8628   37.9123 H   0  0  0  0  0  0  0  0  0  0  0  0
    1.1236   -1.6240   37.4457 H   0  0  0  0  0  0  0  0  0  0  0  0
    2.2664   -3.4730   39.5541 H   0  0  0  0  0  0  0  0  0  0  0  0
    0.9396   -2.3277   39.6906 H   0  0  0  0  0  0  0  0  0  0  0  0
   -0.4972   -3.8313   38.2828 H   0  0  0  0  0  0  0  0  0  0  0  0
    0.0866   -4.6574   39.7295 H   0  0  0  0  0  0  0  0  0  0  0  0
    1.8317   -5.8278   38.4720 H   0  0  0  0  0  0  0  0  0  0  0  0
    0.2927   -6.0567   37.6309 H   0  0  0  0  0  0  0  0  0  0  0  0
   -0.5116   -3.2966   30.7942 H   0  0  0  0  0  0  0  0  0  0  0  0
    0.7876   -2.3513   28.9572 H   0  0  0  0  0  0  0  0  0  0  0  0
    2.7908   -3.0596   27.1339 H   0  0  0  0  0  0  0  0  0  0  0  0
    3.8098   -5.1391   26.1449 H   0  0  0  0  0  0  0  0  0  0  0  0
    2.8302   -7.2321   27.5467 H   0  0  0  0  0  0  0  0  0  0  0  0
  1  2  1  0
  2  3  1  0
  3  4  2  0
  4  5  1  0
  5  6  1  0
  6  7  1  0
  6  8  1  0
  8  9  1  0
  9 10  2  0
 10 11  1  0
 11 12  2  0
 12 13  1  0
 12 14  1  0
 14 15  1  0
 15 16  1  0
 16 17  1  0
  4 18  1  0
 18 19  2  0
 19 20  1  0
 20 21  1  0
 21 22  1  0
 22 23  2  0
 23 24  1  0
 24  3  1  0
 13  9  1  0
 24 20  2  0
 17 11  1  0
  1 25  1  0
  1 26  1  0
  1 27  1  0
  5 28  1  0
  5 29  1  0
  7 30  1  0
  7 31  1  0
  7 32  1  0
  8 33  1  0
  8 34  1  0
 14 35  1  0
 14 36  1  0
 15 37  1  0
 15 38  1  0
 16 39  1  0
 16 40  1  0
 17 41  1  0
 17 42  1  0
 18 43  1  0
 19 44  1  0
 21 45  1  0
 22 46  1  0
 23 47  1  0
M  END
>  <Energy>  (1187) 
88.02520287185304

>  <compound_id>  (1187) 
47083

>  <target_id>  (1187) 
1

>  <reference_id>  (1187) 
40

>  <inspiration_ids>  (1187) 
[40, 56]

>  <energy_score>  (1187) 
-77.82613658537741

>  <distance_score>  (1187) 
1.5534654553330793

>  <path>  (1187) 
/opt/xchem-fragalysis-2/maxwin/BulkDock/SCRATCH/511023/C47083-P40/C47083-P40.minimised.mol

>  <scratch_subdir>  (1187) 
/opt/xchem-fragalysis-2/maxwin/BulkDock/SCRATCH/511023/C47083-P40

>  <fragmenstein_runtime>  (1187) 
5.674366474151611

>  <fragmenstein_outcome>  (1187) 
too moved

>  <fragmenstein_mode>  (1187) 
expansion

>  <fragmenstein_error>  (1187) 


$$$$
C47083-P56
     RDKit          3D

 47 50  0  0  0  0  0  0  0  0999 V2000
   -1.5205   -7.8320   32.3080 C   0  0  0  0  0  0  0  0  0  0  0  0
   -0.2757   -7.5807   31.6754 O   0  0  0  0  0  0  0  0  0  0  0  0
   -0.2993   -6.4783   30.8598 C   0  0  0  0  0  0  0  0  0  0  0  0
   -0.1846   -5.1797   31.3668 C   0  0  0  0  0  0  0  0  0  0  0  0
   -0.1129   -4.9485   32.8534 C   0  0  0  0  0  0  0  0  0  0  0  0
    0.3833   -3.5972   33.0944 N   0  0  0  0  0  0  0  0  0  0  0  0
   -0.5249   -2.7462   33.8440 C   0  0  0  0  0  0  0  0  0  0  0  0
    1.7983   -3.5728   33.5192 C   0  0  0  0  0  0  0  0  0  0  0  0
    1.9385   -3.8062   34.9879 C   0  0  0  0  0  0  0  0  0  0  0  0
    1.1667   -4.6569   35.6299 N   0  0  0  0  0  0  0  0  0  0  0  0
    1.0148   -4.1962   36.8980 C   0  0  0  0  0  0  0  0  0  0  0  0
    1.9136   -3.2312   37.2972 C   0  0  0  0  0  0  0  0  0  0  0  0
    2.8738   -2.7512   35.9777 S   0  0  0  0  0  0  0  0  0  0  0  0
    1.9424   -2.6007   38.6399 C   0  0  0  0  0  0  0  0  0  0  0  0
    0.9586   -3.3198   39.5839 C   0  0  0  0  0  0  0  0  0  0  0  0
   -0.3600   -3.7065   38.8921 C   0  0  0  0  0  0  0  0  0  0  0  0
   -0.1201   -4.6649   37.7240 C   0  0  0  0  0  0  0  0  0  0  0  0
   -0.1339   -4.0776   30.4813 C   0  0  0  0  0  0  0  0  0  0  0  0
   -0.1493   -4.2210   29.1060 C   0  0  0  0  0  0  0  0  0  0  0  0
   -0.2692   -5.5207   28.6449 C   0  0  0  0  0  0  0  0  0  0  0  0
   -0.3360   -5.9747   27.3644 N   0  0  0  0  0  0  0  0  0  0  0  0
   -0.4158   -7.3251   27.3241 C   0  0  0  0  0  0  0  0  0  0  0  0
   -0.3557   -7.7777   28.6140 C   0  0  0  0  0  0  0  0  0  0  0  0
   -0.3244   -6.6442   29.4670 C   0  0  0  0  0  0  0  0  0  0  0  0
   -2.3686   -7.5773   31.6704 H   0  0  0  0  0  0  0  0  0  0  0  0
   -1.5789   -8.9029   32.5254 H   0  0  0  0  0  0  0  0  0  0  0  0
   -1.5857   -7.2988   33.2596 H   0  0  0  0  0  0  0  0  0  0  0  0
    0.5222   -5.7099   33.3212 H   0  0  0  0  0  0  0  0  0  0  0  0
   -1.1180   -5.0757   33.2586 H   0  0  0  0  0  0  0  0  0  0  0  0
   -0.0988   -1.7462   33.9823 H   0  0  0  0  0  0  0  0  0  0  0  0
   -1.4543   -2.6059   33.2805 H   0  0  0  0  0  0  0  0  0  0  0  0
   -0.7925   -3.1484   34.8248 H   0  0  0  0  0  0  0  0  0  0  0  0
    2.2107   -2.5941   33.2444 H   0  0  0  0  0  0  0  0  0  0  0  0
    2.3891   -4.3118   32.9640 H   0  0  0  0  0  0  0  0  0  0  0  0
    2.9505   -2.6269   39.0681 H   0  0  0  0  0  0  0  0  0  0  0  0
    1.6462   -1.5484   38.5509 H   0  0  0  0  0  0  0  0  0  0  0  0
    1.4298   -4.2295   39.9766 H   0  0  0  0  0  0  0  0  0  0  0  0
    0.7522   -2.6773   40.4476 H   0  0  0  0  0  0  0  0  0  0  0  0
   -0.8542   -2.7956   38.5301 H   0  0  0  0  0  0  0  0  0  0  0  0
   -1.0397   -4.1722   39.6148 H   0  0  0  0  0  0  0  0  0  0  0  0
    0.0780   -5.6647   38.1075 H   0  0  0  0  0  0  0  0  0  0  0  0
   -1.0302   -4.7318   37.1166 H   0  0  0  0  0  0  0  0  0  0  0  0
   -0.0598   -3.0601   30.8616 H   0  0  0  0  0  0  0  0  0  0  0  0
   -0.1002   -3.3644   28.4423 H   0  0  0  0  0  0  0  0  0  0  0  0
   -0.2173   -5.4114   26.5529 H   0  0  0  0  0  0  0  0  0  0  0  0
   -0.4676   -7.8296   26.3725 H   0  0  0  0  0  0  0  0  0  0  0  0
   -0.3325   -8.8121   28.9333 H   0  0  0  0  0  0  0  0  0  0  0  0
  1  2  1  0
  2  3  1  0
  3  4  2  0
  4  5  1  0
  5  6  1  0
  6  7  1  0
  6  8  1  0
  8  9  1  0
  9 10  2  0
 10 11  1  0
 11 12  2  0
 12 13  1  0
 12 14  1  0
 14 15  1  0
 15 16  1  0
 16 17  1  0
  4 18  1  0
 18 19  2  0
 19 20  1  0
 20 21  1  0
 21 22  1  0
 22 23  2  0
 23 24  1  0
 24  3  1  0
 13  9  1  0
 24 20  2  0
 17 11  1  0
  1 25  1  0
  1 26  1  0
  1 27  1  0
  5 28  1  0
  5 29  1  0
  7 30  1  0
  7 31  1  0
  7 32  1  0
  8 33  1  0
  8 34  1  0
 14 35  1  0
 14 36  1  0
 15 37  1  0
 15 38  1  0
 16 39  1  0
 16 40  1  0
 17 41  1  0
 17 42  1  0
 18 43  1  0
 19 44  1  0
 21 45  1  0
 22 46  1  0
 23 47  1  0
M  END
>  <Energy>  (1188) 
85.359760971814282

>  <compound_id>  (1188) 
47083

>  <target_id>  (1188) 
1

>  <reference_id>  (1188) 
56

>  <inspiration_ids>  (1188) 
[40, 56]

>  <energy_score>  (1188) 
-80.49157848541432

>  <distance_score>  (1188) 
1.74048605362687

>  <path>  (1188) 
/opt/xchem-fragalysis-2/maxwin/BulkDock/SCRATCH/511023/C47083-P56/C47083-P56.minimised.mol

>  <scratch_subdir>  (1188) 
/opt/xchem-fragalysis-2/maxwin/BulkDock/SCRATCH/511023/C47083-P56

>  <fragmenstein_runtime>  (1188) 
7.374212026596069

>  <fragmenstein_outcome>  (1188) 
too moved

>  <fragmenstein_mode>  (1188) 
expansion

>  <fragmenstein_error>  (1188) 


$$$$
C8332-P40
     RDKit          3D

 40 42  0  0  0  0  0  0  0  0999 V2000
   -0.7795   -7.8973   31.6627 C   0  0  0  0  0  0  0  0  0  0  0  0
    0.2435   -7.4370   30.7897 O   0  0  0  0  0  0  0  0  0  0  0  0
    0.3532   -6.0843   30.6282 C   0  0  0  0  0  0  0  0  0  0  0  0
    0.0369   -5.0899   31.5774 C   0  0  0  0  0  0  0  0  0  0  0  0
    0.2578   -5.2652   33.0825 C   0  0  0  0  0  0  0  0  0  0  0  0
    1.7104   -5.1981   33.4148 N   0  0  0  0  0  0  0  0  0  0  0  0
    2.3326   -3.9110   33.0990 C   0  0  0  0  0  0  0  0  0  0  0  0
    2.0053   -5.5735   34.8075 C   0  0  0  0  0  0  0  0  0  0  0  0
    1.4707   -4.6928   35.9207 C   0  0  0  0  0  0  0  0  0  0  0  0
    2.2965   -3.7661   36.5589 C   0  0  0  0  0  0  0  0  0  0  0  0
    1.7899   -3.0425   37.6350 C   0  0  0  0  0  0  0  0  0  0  0  0
    0.4785   -3.2557   38.0398 C   0  0  0  0  0  0  0  0  0  0  0  0
   -0.2796   -4.1808   37.3437 C   0  0  0  0  0  0  0  0  0  0  0  0
    0.1839   -4.9006   36.2991 N   0  0  0  0  0  0  0  0  0  0  0  0
   -0.1317   -3.7569   31.1521 C   0  0  0  0  0  0  0  0  0  0  0  0
    0.2934   -3.3301   29.8977 C   0  0  0  0  0  0  0  0  0  0  0  0
    0.9574   -4.2736   29.1229 C   0  0  0  0  0  0  0  0  0  0  0  0
    1.7046   -4.0915   27.9838 N   0  0  0  0  0  0  0  0  0  0  0  0
    2.1876   -5.2905   27.5405 C   0  0  0  0  0  0  0  0  0  0  0  0
    1.7075   -6.2587   28.3913 C   0  0  0  0  0  0  0  0  0  0  0  0
    0.9747   -5.6300   29.4375 C   0  0  0  0  0  0  0  0  0  0  0  0
   -1.6566   -7.2457   31.6745 H   0  0  0  0  0  0  0  0  0  0  0  0
   -0.3822   -8.0534   32.6677 H   0  0  0  0  0  0  0  0  0  0  0  0
   -1.0989   -8.8801   31.3105 H   0  0  0  0  0  0  0  0  0  0  0  0
   -0.1624   -6.2074   33.4292 H   0  0  0  0  0  0  0  0  0  0  0  0
   -0.2977   -4.4865   33.6214 H   0  0  0  0  0  0  0  0  0  0  0  0
    2.4240   -3.7673   32.0191 H   0  0  0  0  0  0  0  0  0  0  0  0
    3.3637   -3.8730   33.4712 H   0  0  0  0  0  0  0  0  0  0  0  0
    1.7858   -3.0635   33.5266 H   0  0  0  0  0  0  0  0  0  0  0  0
    1.6239   -6.5900   34.9776 H   0  0  0  0  0  0  0  0  0  0  0  0
    3.0923   -5.6806   34.9263 H   0  0  0  0  0  0  0  0  0  0  0  0
    3.3236   -3.6218   36.2399 H   0  0  0  0  0  0  0  0  0  0  0  0
    2.4142   -2.3216   38.1552 H   0  0  0  0  0  0  0  0  0  0  0  0
    0.0535   -2.7099   38.8748 H   0  0  0  0  0  0  0  0  0  0  0  0
   -1.3113   -4.3760   37.6216 H   0  0  0  0  0  0  0  0  0  0  0  0
   -0.4530   -2.9956   31.8637 H   0  0  0  0  0  0  0  0  0  0  0  0
    0.2464   -2.2827   29.6157 H   0  0  0  0  0  0  0  0  0  0  0  0
    1.8872   -3.1850   27.5716 H   0  0  0  0  0  0  0  0  0  0  0  0
    2.8263   -5.3534   26.6689 H   0  0  0  0  0  0  0  0  0  0  0  0
    1.9093   -7.3059   28.2915 H   0  0  0  0  0  0  0  0  0  0  0  0
  1  2  1  0
  2  3  1  0
  3  4  2  0
  4  5  1  0
  5  6  1  0
  6  7  1  0
  6  8  1  0
  8  9  1  0
  9 10  2  0
 10 11  1  0
 11 12  2  0
 12 13  1  0
 13 14  2  0
  4 15  1  0
 15 16  2  0
 16 17  1  0
 17 18  1  0
 18 19  1  0
 19 20  2  0
 20 21  1  0
 21  3  1  0
 14  9  1  0
 21 17  2  0
  1 22  1  0
  1 23  1  0
  1 24  1  0
  5 25  1  0
  5 26  1  0
  7 27  1  0
  7 28  1  0
  7 29  1  0
  8 30  1  0
  8 31  1  0
 10 32  1  0
 11 33  1  0
 12 34  1  0
 13 35  1  0
 15 36  1  0
 16 37  1  0
 18 38  1  0
 19 39  1  0
 20 40  1  0
M  END
>  <Energy>  (1189) 
94.718910094130848

>  <compound_id>  (1189) 
8332

>  <target_id>  (1189) 
1

>  <reference_id>  (1189) 
40

>  <inspiration_ids>  (1189) 
[40, 56]

>  <energy_score>  (1189) 
-16.359687804241105

>  <distance_score>  (1189) 
1.3050192505519833

>  <path>  (1189) 
/opt/xchem-fragalysis-2/maxwin/BulkDock/SCRATCH/511023/C8332-P40/C8332-P40.minimised.mol

>  <scratch_subdir>  (1189) 
/opt/xchem-fragalysis-2/maxwin/BulkDock/SCRATCH/511023/C8332-P40

>  <fragmenstein_runtime>  (1189) 
2.192612648010254

>  <fragmenstein_outcome>  (1189) 
too moved

>  <fragmenstein_mode>  (1189) 
expansion

>  <fragmenstein_error>  (1189) 


$$$$
C8332-P56
     RDKit          3D

 40 42  0  0  0  0  0  0  0  0999 V2000
   -0.7121   -8.0444   31.7986 C   0  0  0  0  0  0  0  0  0  0  0  0
   -1.2647   -6.7662   31.6023 O   0  0  0  0  0  0  0  0  0  0  0  0
   -0.3329   -5.9115   31.0639 C   0  0  0  0  0  0  0  0  0  0  0  0
    0.3069   -4.9610   31.8710 C   0  0  0  0  0  0  0  0  0  0  0  0
    0.2639   -5.0645   33.3831 C   0  0  0  0  0  0  0  0  0  0  0  0
    0.9399   -3.9082   33.9906 N   0  0  0  0  0  0  0  0  0  0  0  0
    0.0314   -2.8068   34.2867 C   0  0  0  0  0  0  0  0  0  0  0  0
    1.9160   -4.2326   35.0332 C   0  0  0  0  0  0  0  0  0  0  0  0
    1.3798   -4.1455   36.4460 C   0  0  0  0  0  0  0  0  0  0  0  0
    1.9637   -3.2490   37.3418 C   0  0  0  0  0  0  0  0  0  0  0  0
    1.3927   -3.0881   38.5968 C   0  0  0  0  0  0  0  0  0  0  0  0
    0.2528   -3.8119   38.9172 C   0  0  0  0  0  0  0  0  0  0  0  0
   -0.2587   -4.6882   37.9746 C   0  0  0  0  0  0  0  0  0  0  0  0
    0.2829   -4.8909   36.7567 N   0  0  0  0  0  0  0  0  0  0  0  0
    1.0334   -3.9185   31.2565 C   0  0  0  0  0  0  0  0  0  0  0  0
    1.0623   -3.7298   29.8869 C   0  0  0  0  0  0  0  0  0  0  0  0
    0.4133   -4.6937   29.1405 C   0  0  0  0  0  0  0  0  0  0  0  0
    0.2447   -4.7494   27.7908 N   0  0  0  0  0  0  0  0  0  0  0  0
   -0.3463   -5.9289   27.4225 C   0  0  0  0  0  0  0  0  0  0  0  0
   -0.6134   -6.6190   28.5758 C   0  0  0  0  0  0  0  0  0  0  0  0
   -0.2040   -5.8156   29.6710 C   0  0  0  0  0  0  0  0  0  0  0  0
   -1.4525   -8.6599   32.3189 H   0  0  0  0  0  0  0  0  0  0  0  0
   -0.5077   -8.5132   30.8335 H   0  0  0  0  0  0  0  0  0  0  0  0
    0.1782   -7.9902   32.4272 H   0  0  0  0  0  0  0  0  0  0  0  0
    0.7758   -5.9958   33.6519 H   0  0  0  0  0  0  0  0  0  0  0  0
   -0.7680   -5.1530   33.7373 H   0  0  0  0  0  0  0  0  0  0  0  0
   -0.5037   -2.4896   33.3845 H   0  0  0  0  0  0  0  0  0  0  0  0
    0.5867   -1.9294   34.6366 H   0  0  0  0  0  0  0  0  0  0  0  0
   -0.7233   -3.0655   35.0364 H   0  0  0  0  0  0  0  0  0  0  0  0
    2.3673   -5.2215   34.8853 H   0  0  0  0  0  0  0  0  0  0  0  0
    2.7479   -3.5254   34.9214 H   0  0  0  0  0  0  0  0  0  0  0  0
    2.8465   -2.6821   37.0666 H   0  0  0  0  0  0  0  0  0  0  0  0
    1.8290   -2.3992   39.3127 H   0  0  0  0  0  0  0  0  0  0  0  0
   -0.2276   -3.6988   39.8821 H   0  0  0  0  0  0  0  0  0  0  0  0
   -1.1499   -5.2686   38.1887 H   0  0  0  0  0  0  0  0  0  0  0  0
    1.5729   -3.1879   31.8563 H   0  0  0  0  0  0  0  0  0  0  0  0
    1.5713   -2.8836   29.4391 H   0  0  0  0  0  0  0  0  0  0  0  0
    0.6205   -4.0274   27.1973 H   0  0  0  0  0  0  0  0  0  0  0  0
   -0.4944   -6.2033   26.3882 H   0  0  0  0  0  0  0  0  0  0  0  0
   -1.0549   -7.5946   28.6488 H   0  0  0  0  0  0  0  0  0  0  0  0
  1  2  1  0
  2  3  1  0
  3  4  2  0
  4  5  1  0
  5  6  1  0
  6  7  1  0
  6  8  1  0
  8  9  1  0
  9 10  2  0
 10 11  1  0
 11 12  2  0
 12 13  1  0
 13 14  2  0
  4 15  1  0
 15 16  2  0
 16 17  1  0
 17 18  1  0
 18 19  1  0
 19 20  2  0
 20 21  1  0
 21  3  1  0
 14  9  1  0
 21 17  2  0
  1 22  1  0
  1 23  1  0
  1 24  1  0
  5 25  1  0
  5 26  1  0
  7 27  1  0
  7 28  1  0
  7 29  1  0
  8 30  1  0
  8 31  1  0
 10 32  1  0
 11 33  1  0
 12 34  1  0
 13 35  1  0
 15 36  1  0
 16 37  1  0
 18 38  1  0
 19 39  1  0
 20 40  1  0
M  END
>  <Energy>  (1190) 
87.672753608502958

>  <compound_id>  (1190) 
8332

>  <target_id>  (1190) 
1

>  <reference_id>  (1190) 
56

>  <inspiration_ids>  (1190) 
[40, 56]

>  <energy_score>  (1190) 
-23.40584428986898

>  <distance_score>  (1190) 
1.4195558266369601

>  <path>  (1190) 
/opt/xchem-fragalysis-2/maxwin/BulkDock/SCRATCH/511023/C8332-P56/C8332-P56.minimised.mol

>  <scratch_subdir>  (1190) 
/opt/xchem-fragalysis-2/maxwin/BulkDock/SCRATCH/511023/C8332-P56

>  <fragmenstein_runtime>  (1190) 
2.547452688217163

>  <fragmenstein_outcome>  (1190) 
too moved

>  <fragmenstein_mode>  (1190) 
expansion

>  <fragmenstein_error>  (1190) 


$$$$
C42690-P40
     RDKit          3D

 36 38  0  0  0  0  0  0  0  0999 V2000
    4.3309    0.1670   32.4502 C   0  0  0  0  0  0  0  0  0  0  0  0
    4.1274   -0.6243   33.3310 C   0  0  0  0  0  0  0  0  0  0  0  0
    3.8586   -1.5700   34.4468 C   0  0  0  0  0  0  0  0  0  0  0  0
    3.2686   -2.9257   33.8338 N   0  0  0  0  0  0  0  0  0  0  0  0
    4.3202   -3.7243   33.2903 C   0  0  0  0  0  0  0  0  0  0  0  0
    4.9964   -4.5841   33.8001 O   0  0  0  0  0  0  0  0  0  0  0  0
    4.5043   -3.4711   31.7925 C   0  0  0  0  0  0  0  0  0  0  0  0
    3.2793   -3.6586   30.9374 C   0  0  0  0  0  0  0  0  0  0  0  0
    3.0869   -3.0452   29.7109 C   0  0  0  0  0  0  0  0  0  0  0  0
    1.8587   -3.3970   29.2306 N   0  0  0  0  0  0  0  0  0  0  0  0
    1.2607   -4.2850   30.0924 C   0  0  0  0  0  0  0  0  0  0  0  0
    0.0175   -4.9090   29.9936 C   0  0  0  0  0  0  0  0  0  0  0  0
   -0.3695   -5.7598   31.0324 C   0  0  0  0  0  0  0  0  0  0  0  0
    0.4461   -5.9321   32.1457 C   0  0  0  0  0  0  0  0  0  0  0  0
   -0.0280   -6.7588   33.2547 N   0  0  0  0  0  0  0  0  0  0  0  0
   -1.2533   -6.8633   33.4022 O   0  0  0  0  0  0  0  0  0  0  0  0
    0.8232   -7.3150   33.9611 O   0  0  0  0  0  0  0  0  0  0  0  0
    1.6974   -5.3151   32.2285 C   0  0  0  0  0  0  0  0  0  0  0  0
    2.1183   -4.4678   31.1775 C   0  0  0  0  0  0  0  0  0  0  0  0
    2.6337   -2.9714   35.0975 C   0  0  0  0  0  0  0  0  0  0  0  0
    3.1384   -3.3937   36.2344 N   0  0  0  0  0  0  0  0  0  0  0  0
    2.1307   -3.4935   37.1753 C   0  0  0  0  0  0  0  0  0  0  0  0
    0.8614   -3.1980   36.7251 C   0  0  0  0  0  0  0  0  0  0  0  0
    0.9196   -2.7912   35.0580 S   0  0  0  0  0  0  0  0  0  0  0  0
    4.5077    0.8729   31.6709 H   0  0  0  0  0  0  0  0  0  0  0  0
    3.2127   -0.9790   35.1260 H   0  0  0  0  0  0  0  0  0  0  0  0
    4.8185   -1.7992   34.9370 H   0  0  0  0  0  0  0  0  0  0  0  0
    4.9377   -2.4799   31.6420 H   0  0  0  0  0  0  0  0  0  0  0  0
    5.2623   -4.1810   31.4334 H   0  0  0  0  0  0  0  0  0  0  0  0
    3.7134   -2.3548   29.1597 H   0  0  0  0  0  0  0  0  0  0  0  0
    1.4375   -3.0373   28.3827 H   0  0  0  0  0  0  0  0  0  0  0  0
   -0.6310   -4.7023   29.1494 H   0  0  0  0  0  0  0  0  0  0  0  0
   -1.3199   -6.2806   30.9837 H   0  0  0  0  0  0  0  0  0  0  0  0
    2.3258   -5.4738   33.1008 H   0  0  0  0  0  0  0  0  0  0  0  0
    2.3770   -3.8053   38.1837 H   0  0  0  0  0  0  0  0  0  0  0  0
   -0.0712   -3.2230   37.2709 H   0  0  0  0  0  0  0  0  0  0  0  0
  1  2  3  0
  2  3  1  0
  3  4  1  0
  4  5  1  0
  5  6  2  0
  5  7  1  0
  7  8  1  0
  8  9  2  0
  9 10  1  0
 10 11  1  0
 11 12  2  0
 12 13  1  0
 13 14  2  0
 14 15  1  0
 15 16  2  0
 15 17  1  0
 14 18  1  0
 18 19  2  0
  4 20  1  0
 20 21  2  0
 21 22  1  0
 22 23  2  0
 23 24  1  0
 19  8  1  0
 24 20  1  0
 19 11  1  0
  1 25  1  0
  3 26  1  0
  3 27  1  0
  7 28  1  0
  7 29  1  0
  9 30  1  0
 10 31  1  0
 12 32  1  0
 13 33  1  0
 18 34  1  0
 22 35  1  0
 23 36  1  0
M  CHG  2  15   1  17  -1
M  END
>  <Energy>  (1191) 
117.65468168271526

>  <compound_id>  (1191) 
42690

>  <target_id>  (1191) 
1

>  <reference_id>  (1191) 
40

>  <inspiration_ids>  (1191) 
[40, 56]

>  <energy_score>  (1191) 
-30.68849140823812

>  <distance_score>  (1191) 
2.8752544651688106

>  <path>  (1191) 
/opt/xchem-fragalysis-2/maxwin/BulkDock/SCRATCH/511023/C42690-P40/C42690-P40.minimised.mol

>  <scratch_subdir>  (1191) 
/opt/xchem-fragalysis-2/maxwin/BulkDock/SCRATCH/511023/C42690-P40

>  <fragmenstein_runtime>  (1191) 
4.192992687225342

>  <fragmenstein_outcome>  (1191) 
too moved

>  <fragmenstein_mode>  (1191) 
expansion

>  <fragmenstein_error>  (1191) 


$$$$
C42690-P56
     RDKit          3D

 36 38  0  0  0  0  0  0  0  0999 V2000
   -0.5045    0.5317   34.3368 C   0  0  0  0  0  0  0  0  0  0  0  0
    0.5194   -0.0865   34.2260 C   0  0  0  0  0  0  0  0  0  0  0  0
    1.7841   -0.8484   34.0851 C   0  0  0  0  0  0  0  0  0  0  0  0
    1.5435   -2.3067   33.4829 N   0  0  0  0  0  0  0  0  0  0  0  0
    2.5489   -2.6218   32.3799 C   0  0  0  0  0  0  0  0  0  0  0  0
    3.6127   -3.1268   32.4390 O   0  0  0  0  0  0  0  0  0  0  0  0
    1.9422   -2.1233   31.0672 C   0  0  0  0  0  0  0  0  0  0  0  0
    1.4429   -3.1958   30.1375 C   0  0  0  0  0  0  0  0  0  0  0  0
    1.4662   -3.1147   28.7574 C   0  0  0  0  0  0  0  0  0  0  0  0
    0.7481   -4.1559   28.2670 N   0  0  0  0  0  0  0  0  0  0  0  0
    0.3529   -4.9850   29.2817 C   0  0  0  0  0  0  0  0  0  0  0  0
   -0.3008   -6.2113   29.2230 C   0  0  0  0  0  0  0  0  0  0  0  0
   -0.5583   -6.8547   30.4323 C   0  0  0  0  0  0  0  0  0  0  0  0
   -0.2287   -6.2609   31.6428 C   0  0  0  0  0  0  0  0  0  0  0  0
   -0.6335   -6.8935   32.8910 N   0  0  0  0  0  0  0  0  0  0  0  0
   -0.7110   -6.1846   33.9009 O   0  0  0  0  0  0  0  0  0  0  0  0
   -0.9328   -8.0964   32.8567 O   0  0  0  0  0  0  0  0  0  0  0  0
    0.4446   -5.0464   31.6816 C   0  0  0  0  0  0  0  0  0  0  0  0
    0.7692   -4.4071   30.4734 C   0  0  0  0  0  0  0  0  0  0  0  0
    1.5643   -2.6198   34.8787 C   0  0  0  0  0  0  0  0  0  0  0  0
    2.6216   -2.8424   35.6270 N   0  0  0  0  0  0  0  0  0  0  0  0
    2.2224   -3.2771   36.8759 C   0  0  0  0  0  0  0  0  0  0  0  0
    0.8719   -3.4966   37.0364 C   0  0  0  0  0  0  0  0  0  0  0  0
    0.0625   -3.1396   35.5677 S   0  0  0  0  0  0  0  0  0  0  0  0
   -1.4169    1.0730   34.4384 H   0  0  0  0  0  0  0  0  0  0  0  0
    2.5065   -0.6983   34.9080 H   0  0  0  0  0  0  0  0  0  0  0  0
    2.3155   -0.3366   33.2649 H   0  0  0  0  0  0  0  0  0  0  0  0
    1.1124   -1.4350   31.2689 H   0  0  0  0  0  0  0  0  0  0  0  0
    2.7173   -1.5266   30.5693 H   0  0  0  0  0  0  0  0  0  0  0  0
    1.8742   -2.3620   28.0923 H   0  0  0  0  0  0  0  0  0  0  0  0
    0.5841   -4.3269   27.2915 H   0  0  0  0  0  0  0  0  0  0  0  0
   -0.5681   -6.6723   28.2780 H   0  0  0  0  0  0  0  0  0  0  0  0
   -0.9982   -7.8432   30.4159 H   0  0  0  0  0  0  0  0  0  0  0  0
    0.7266   -4.6166   32.6353 H   0  0  0  0  0  0  0  0  0  0  0  0
    2.9703   -3.4412   37.6393 H   0  0  0  0  0  0  0  0  0  0  0  0
    0.3467   -3.8666   37.9044 H   0  0  0  0  0  0  0  0  0  0  0  0
  1  2  3  0
  2  3  1  0
  3  4  1  0
  4  5  1  0
  5  6  2  0
  5  7  1  0
  7  8  1  0
  8  9  2  0
  9 10  1  0
 10 11  1  0
 11 12  2  0
 12 13  1  0
 13 14  2  0
 14 15  1  0
 15 16  2  0
 15 17  1  0
 14 18  1  0
 18 19  2  0
  4 20  1  0
 20 21  2  0
 21 22  1  0
 22 23  2  0
 23 24  1  0
 19  8  1  0
 24 20  1  0
 19 11  1  0
  1 25  1  0
  3 26  1  0
  3 27  1  0
  7 28  1  0
  7 29  1  0
  9 30  1  0
 10 31  1  0
 12 32  1  0
 13 33  1  0
 18 34  1  0
 22 35  1  0
 23 36  1  0
M  CHG  2  15   1  17  -1
M  END
>  <Energy>  (1192) 
131.5268063133264

>  <compound_id>  (1192) 
42690

>  <target_id>  (1192) 
1

>  <reference_id>  (1192) 
56

>  <inspiration_ids>  (1192) 
[40, 56]

>  <energy_score>  (1192) 
42.68404413975647

>  <distance_score>  (1192) 
2.6472667861813153

>  <path>  (1192) 
/opt/xchem-fragalysis-2/maxwin/BulkDock/SCRATCH/511023/C42690-P56/C42690-P56.minimised.mol

>  <scratch_subdir>  (1192) 
/opt/xchem-fragalysis-2/maxwin/BulkDock/SCRATCH/511023/C42690-P56

>  <fragmenstein_runtime>  (1192) 
3.002964973449707

>  <fragmenstein_outcome>  (1192) 
too moved

>  <fragmenstein_mode>  (1192) 
expansion

>  <fragmenstein_error>  (1192) 


$$$$
C9818-P40
     RDKit          3D

 37 39  0  0  0  0  0  0  0  0999 V2000
    1.1628   -6.5509   31.8711 O   0  0  0  0  0  0  0  0  0  0  0  0
    0.3338   -7.1054   31.2725 C   0  0  0  0  0  0  0  0  0  0  0  0
    0.2925   -7.2089   29.7538 C   0  0  0  0  0  0  0  0  0  0  0  0
    1.0689   -6.1066   29.1296 C   0  0  0  0  0  0  0  0  0  0  0  0
    2.0632   -6.2364   28.1773 C   0  0  0  0  0  0  0  0  0  0  0  0
    2.5340   -4.9910   27.8835 N   0  0  0  0  0  0  0  0  0  0  0  0
    1.8945   -4.0560   28.6547 C   0  0  0  0  0  0  0  0  0  0  0  0
    2.1158   -2.6788   28.7098 C   0  0  0  0  0  0  0  0  0  0  0  0
    1.3742   -1.9222   29.6116 C   0  0  0  0  0  0  0  0  0  0  0  0
    0.4301   -2.5137   30.4243 C   0  0  0  0  0  0  0  0  0  0  0  0
    0.2109   -3.8812   30.3472 C   0  0  0  0  0  0  0  0  0  0  0  0
   -0.9697   -4.4814   31.4174 Cl  0  0  0  0  0  0  0  0  0  0  0  0
    0.9495   -4.7064   29.4546 C   0  0  0  0  0  0  0  0  0  0  0  0
   -0.9597   -7.7779   31.7530 N   0  0  0  0  0  0  0  0  0  0  0  0
   -1.5427   -7.8275   33.0316 C   0  0  0  0  0  0  0  0  0  0  0  0
   -0.5575   -7.6201   34.0473 C   0  0  0  0  0  0  0  0  0  0  0  0
    0.1918   -7.1564   34.8512 C   0  0  0  0  0  0  0  0  0  0  0  0
    0.9648   -6.3746   35.7372 C   0  0  0  0  0  0  0  0  0  0  0  0
    0.8735   -4.9862   35.6796 C   0  0  0  0  0  0  0  0  0  0  0  0
    1.6074   -4.2285   36.5801 C   0  0  0  0  0  0  0  0  0  0  0  0
    2.4063   -4.8963   37.4963 C   0  0  0  0  0  0  0  0  0  0  0  0
    2.5188   -6.2422   37.5706 N   0  0  0  0  0  0  0  0  0  0  0  0
    1.7884   -6.9553   36.6841 C   0  0  0  0  0  0  0  0  0  0  0  0
   -0.7434   -7.1319   29.4115 H   0  0  0  0  0  0  0  0  0  0  0  0
    0.6564   -8.1933   29.4550 H   0  0  0  0  0  0  0  0  0  0  0  0
    2.5015   -7.0973   27.6927 H   0  0  0  0  0  0  0  0  0  0  0  0
    3.2963   -4.7841   27.2505 H   0  0  0  0  0  0  0  0  0  0  0  0
    2.8549   -2.1970   28.0754 H   0  0  0  0  0  0  0  0  0  0  0  0
    1.5369   -0.8477   29.6678 H   0  0  0  0  0  0  0  0  0  0  0  0
   -0.1353   -1.8946   31.1163 H   0  0  0  0  0  0  0  0  0  0  0  0
   -1.4846   -8.0893   30.9659 H   0  0  0  0  0  0  0  0  0  0  0  0
   -2.1403   -6.9289   33.0615 H   0  0  0  0  0  0  0  0  0  0  0  0
   -2.1875   -8.6948   33.1138 H   0  0  0  0  0  0  0  0  0  0  0  0
    0.2375   -4.4981   34.9452 H   0  0  0  0  0  0  0  0  0  0  0  0
    1.5624   -3.1455   36.5694 H   0  0  0  0  0  0  0  0  0  0  0  0
    3.0007   -4.3451   38.2205 H   0  0  0  0  0  0  0  0  0  0  0  0
    1.8839   -8.0331   36.7725 H   0  0  0  0  0  0  0  0  0  0  0  0
  1  2  2  0
  2  3  1  0
  3  4  1  0
  4  5  2  0
  5  6  1  0
  6  7  1  0
  7  8  2  0
  8  9  1  0
  9 10  2  0
 10 11  1  0
 11 12  1  0
 11 13  2  0
  2 14  1  0
 14 15  1  0
 15 16  1  0
 16 17  3  0
 17 18  1  0
 18 19  2  0
 19 20  1  0
 20 21  2  0
 21 22  1  0
 22 23  2  0
 13  4  1  0
 23 18  1  0
 13  7  1  0
  3 24  1  0
  3 25  1  0
  5 26  1  0
  6 27  1  0
  8 28  1  0
  9 29  1  0
 10 30  1  0
 14 31  1  0
 15 32  1  0
 15 33  1  0
 19 34  1  0
 20 35  1  0
 21 36  1  0
 23 37  1  0
M  END
>  <Energy>  (1193) 
77.297911897067436

>  <compound_id>  (1193) 
9818

>  <target_id>  (1193) 
1

>  <reference_id>  (1193) 
40

>  <inspiration_ids>  (1193) 
[40, 56]

>  <energy_score>  (1193) 
11.034161981450325

>  <distance_score>  (1193) 
2.3139794400290716

>  <path>  (1193) 
/opt/xchem-fragalysis-2/maxwin/BulkDock/SCRATCH/511023/C9818-P40/C9818-P40.minimised.mol

>  <scratch_subdir>  (1193) 
/opt/xchem-fragalysis-2/maxwin/BulkDock/SCRATCH/511023/C9818-P40

>  <fragmenstein_runtime>  (1193) 
3.2261433601379395

>  <fragmenstein_outcome>  (1193) 
too moved

>  <fragmenstein_mode>  (1193) 
expansion

>  <fragmenstein_error>  (1193) 


$$$$
C9818-P56
     RDKit          3D

 37 39  0  0  0  0  0  0  0  0999 V2000
    0.5665   -7.4633   31.5166 O   0  0  0  0  0  0  0  0  0  0  0  0
   -0.5228   -7.4768   31.1116 C   0  0  0  0  0  0  0  0  0  0  0  0
   -0.8198   -7.0455   29.6721 C   0  0  0  0  0  0  0  0  0  0  0  0
   -0.2264   -5.7389   29.2532 C   0  0  0  0  0  0  0  0  0  0  0  0
   -0.0560   -5.3233   27.9449 C   0  0  0  0  0  0  0  0  0  0  0  0
    0.7096   -4.1867   27.9629 N   0  0  0  0  0  0  0  0  0  0  0  0
    1.0273   -3.8505   29.2448 C   0  0  0  0  0  0  0  0  0  0  0  0
    1.8648   -2.8389   29.7162 C   0  0  0  0  0  0  0  0  0  0  0  0
    1.9061   -2.6245   31.0930 C   0  0  0  0  0  0  0  0  0  0  0  0
    1.0698   -3.3258   31.9429 C   0  0  0  0  0  0  0  0  0  0  0  0
    0.2438   -4.3082   31.4211 C   0  0  0  0  0  0  0  0  0  0  0  0
   -1.1070   -4.7905   32.3135 Cl  0  0  0  0  0  0  0  0  0  0  0  0
    0.2827   -4.6823   30.0720 C   0  0  0  0  0  0  0  0  0  0  0  0
   -1.8297   -7.9767   31.7700 N   0  0  0  0  0  0  0  0  0  0  0  0
   -2.0442   -8.6430   33.0138 C   0  0  0  0  0  0  0  0  0  0  0  0
   -1.3404   -7.8593   34.0121 C   0  0  0  0  0  0  0  0  0  0  0  0
   -0.6991   -7.1189   34.7017 C   0  0  0  0  0  0  0  0  0  0  0  0
    0.0445   -6.1361   35.4084 C   0  0  0  0  0  0  0  0  0  0  0  0
    1.2189   -5.6107   34.8914 C   0  0  0  0  0  0  0  0  0  0  0  0
    1.8902   -4.6193   35.5998 C   0  0  0  0  0  0  0  0  0  0  0  0
    1.3587   -4.1923   36.8054 C   0  0  0  0  0  0  0  0  0  0  0  0
    0.2099   -4.6696   37.3293 N   0  0  0  0  0  0  0  0  0  0  0  0
   -0.4137   -5.6313   36.6110 C   0  0  0  0  0  0  0  0  0  0  0  0
   -1.8820   -7.0401   29.4619 H   0  0  0  0  0  0  0  0  0  0  0  0
   -0.4068   -7.8381   29.0337 H   0  0  0  0  0  0  0  0  0  0  0  0
   -0.3237   -5.8070   27.0154 H   0  0  0  0  0  0  0  0  0  0  0  0
    1.0692   -3.6749   27.1697 H   0  0  0  0  0  0  0  0  0  0  0  0
    2.4524   -2.2252   29.0389 H   0  0  0  0  0  0  0  0  0  0  0  0
    2.5451   -1.8399   31.4922 H   0  0  0  0  0  0  0  0  0  0  0  0
    1.0120   -3.0546   32.9929 H   0  0  0  0  0  0  0  0  0  0  0  0
   -2.6073   -7.7654   31.1740 H   0  0  0  0  0  0  0  0  0  0  0  0
   -1.6262   -9.6471   32.9338 H   0  0  0  0  0  0  0  0  0  0  0  0
   -3.1139   -8.7287   33.2040 H   0  0  0  0  0  0  0  0  0  0  0  0
    1.6160   -5.9662   33.9424 H   0  0  0  0  0  0  0  0  0  0  0  0
    2.8266   -4.2125   35.2345 H   0  0  0  0  0  0  0  0  0  0  0  0
    1.8709   -3.4453   37.4047 H   0  0  0  0  0  0  0  0  0  0  0  0
   -1.3350   -5.9852   37.0535 H   0  0  0  0  0  0  0  0  0  0  0  0
  1  2  2  0
  2  3  1  0
  3  4  1  0
  4  5  2  0
  5  6  1  0
  6  7  1  0
  7  8  2  0
  8  9  1  0
  9 10  2  0
 10 11  1  0
 11 12  1  0
 11 13  2  0
  2 14  1  0
 14 15  1  0
 15 16  1  0
 16 17  3  0
 17 18  1  0
 18 19  2  0
 19 20  1  0
 20 21  2  0
 21 22  1  0
 22 23  2  0
 13  4  1  0
 23 18  1  0
 13  7  1  0
  3 24  1  0
  3 25  1  0
  5 26  1  0
  6 27  1  0
  8 28  1  0
  9 29  1  0
 10 30  1  0
 14 31  1  0
 15 32  1  0
 15 33  1  0
 19 34  1  0
 20 35  1  0
 21 36  1  0
 23 37  1  0
M  END
>  <Energy>  (1194) 
75.971823562871734

>  <compound_id>  (1194) 
9818

>  <target_id>  (1194) 
1

>  <reference_id>  (1194) 
56

>  <inspiration_ids>  (1194) 
[40, 56]

>  <energy_score>  (1194) 
9.70807364725394

>  <distance_score>  (1194) 
2.1743795726463873

>  <path>  (1194) 
/opt/xchem-fragalysis-2/maxwin/BulkDock/SCRATCH/511023/C9818-P56/C9818-P56.minimised.mol

>  <scratch_subdir>  (1194) 
/opt/xchem-fragalysis-2/maxwin/BulkDock/SCRATCH/511023/C9818-P56

>  <fragmenstein_runtime>  (1194) 
3.3216822147369385

>  <fragmenstein_outcome>  (1194) 
too moved

>  <fragmenstein_mode>  (1194) 
expansion

>  <fragmenstein_error>  (1194) 


$$$$
C42692-P40
     RDKit          3D

 44 46  0  0  0  0  0  0  0  0999 V2000
   -1.9310   -8.3015   33.1346 C   0  0  0  0  0  0  0  0  0  0  0  0
   -1.3303   -7.5145   34.3098 C   0  0  0  0  0  0  0  0  0  0  0  0
   -0.0265   -6.7369   33.9854 C   0  0  0  0  0  0  0  0  0  0  0  0
    1.1744   -7.4213   34.6484 C   0  0  0  0  0  0  0  0  0  0  0  0
    0.1156   -6.7649   32.5264 N   0  0  0  0  0  0  0  0  0  0  0  0
    1.1858   -6.1571   31.6207 C   0  0  0  0  0  0  0  0  0  0  0  0
    2.1689   -5.6013   31.8864 O   0  0  0  0  0  0  0  0  0  0  0  0
    0.7086   -6.5527   30.1639 C   0  0  0  0  0  0  0  0  0  0  0  0
    1.1122   -5.4952   29.2326 C   0  0  0  0  0  0  0  0  0  0  0  0
    2.0840   -5.3972   28.2531 C   0  0  0  0  0  0  0  0  0  0  0  0
    3.0814   -6.3559   27.7212 C   0  0  0  0  0  0  0  0  0  0  0  0
    2.1124   -4.0716   27.8766 N   0  0  0  0  0  0  0  0  0  0  0  0
    1.1946   -3.3457   28.5950 C   0  0  0  0  0  0  0  0  0  0  0  0
    0.9209   -1.9832   28.6244 C   0  0  0  0  0  0  0  0  0  0  0  0
   -0.0401   -1.5387   29.5429 C   0  0  0  0  0  0  0  0  0  0  0  0
   -0.7082   -2.4096   30.3933 C   0  0  0  0  0  0  0  0  0  0  0  0
   -0.4312   -3.7613   30.3391 C   0  0  0  0  0  0  0  0  0  0  0  0
    0.5295   -4.2252   29.4218 C   0  0  0  0  0  0  0  0  0  0  0  0
   -0.1106   -5.3240   34.5225 C   0  0  0  0  0  0  0  0  0  0  0  0
   -0.1351   -4.2314   33.7927 N   0  0  0  0  0  0  0  0  0  0  0  0
   -0.1110   -3.1228   34.6115 C   0  0  0  0  0  0  0  0  0  0  0  0
   -0.1467   -3.3662   35.9643 C   0  0  0  0  0  0  0  0  0  0  0  0
   -0.1771   -5.0505   36.2369 S   0  0  0  0  0  0  0  0  0  0  0  0
   -2.3119   -7.6632   32.3355 H   0  0  0  0  0  0  0  0  0  0  0  0
   -1.2031   -8.9636   32.6602 H   0  0  0  0  0  0  0  0  0  0  0  0
   -2.7835   -8.8773   33.4895 H   0  0  0  0  0  0  0  0  0  0  0  0
   -1.1623   -8.1794   35.1648 H   0  0  0  0  0  0  0  0  0  0  0  0
   -2.0977   -6.8242   34.6602 H   0  0  0  0  0  0  0  0  0  0  0  0
    2.1248   -6.9751   34.3381 H   0  0  0  0  0  0  0  0  0  0  0  0
    1.1441   -7.3990   35.7428 H   0  0  0  0  0  0  0  0  0  0  0  0
    1.1758   -8.4694   34.3962 H   0  0  0  0  0  0  0  0  0  0  0  0
   -0.6418   -7.0975   31.9691 H   0  0  0  0  0  0  0  0  0  0  0  0
   -0.3866   -6.6284   30.1304 H   0  0  0  0  0  0  0  0  0  0  0  0
    1.0505   -7.5346   29.8452 H   0  0  0  0  0  0  0  0  0  0  0  0
    3.4956   -6.0150   26.7666 H   0  0  0  0  0  0  0  0  0  0  0  0
    2.6265   -7.3330   27.5530 H   0  0  0  0  0  0  0  0  0  0  0  0
    3.9064   -6.4765   28.4302 H   0  0  0  0  0  0  0  0  0  0  0  0
    2.7822   -3.6563   27.2431 H   0  0  0  0  0  0  0  0  0  0  0  0
    1.4297   -1.2803   27.9730 H   0  0  0  0  0  0  0  0  0  0  0  0
   -0.2677   -0.4751   29.5853 H   0  0  0  0  0  0  0  0  0  0  0  0
   -1.4298   -2.0248   31.1075 H   0  0  0  0  0  0  0  0  0  0  0  0
   -0.9151   -4.4151   31.0547 H   0  0  0  0  0  0  0  0  0  0  0  0
   -0.0847   -2.1386   34.1592 H   0  0  0  0  0  0  0  0  0  0  0  0
   -0.1536   -2.6530   36.7756 H   0  0  0  0  0  0  0  0  0  0  0  0
  1  2  1  0
  2  3  1  0
  3  4  1  0
  3  5  1  0
  5  6  1  0
  6  7  2  0
  6  8  1  0
  8  9  1  0
  9 10  2  0
 10 11  1  0
 10 12  1  0
 12 13  1  0
 13 14  2  0
 14 15  1  0
 15 16  2  0
 16 17  1  0
 17 18  2  0
  3 19  1  0
 19 20  2  0
 20 21  1  0
 21 22  2  0
 22 23  1  0
 18  9  1  0
 23 19  1  0
 18 13  1  0
  1 24  1  0
  1 25  1  0
  1 26  1  0
  2 27  1  0
  2 28  1  0
  4 29  1  0
  4 30  1  0
  4 31  1  0
  5 32  1  0
  8 33  1  0
  8 34  1  0
 11 35  1  0
 11 36  1  0
 11 37  1  0
 12 38  1  0
 14 39  1  0
 15 40  1  0
 16 41  1  0
 17 42  1  0
 21 43  1  0
 22 44  1  0
M  END
>  <Energy>  (1195) 
88.875540510964598

>  <compound_id>  (1195) 
42692

>  <target_id>  (1195) 
1

>  <reference_id>  (1195) 
40

>  <inspiration_ids>  (1195) 
[40, 56]

>  <energy_score>  (1195) 
-25.668452379838413

>  <distance_score>  (1195) 
2.3615510634124455

>  <path>  (1195) 
/opt/xchem-fragalysis-2/maxwin/BulkDock/SCRATCH/511023/C42692-P40/C42692-P40.minimised.mol

>  <scratch_subdir>  (1195) 
/opt/xchem-fragalysis-2/maxwin/BulkDock/SCRATCH/511023/C42692-P40

>  <fragmenstein_runtime>  (1195) 
9.282862663269043

>  <fragmenstein_outcome>  (1195) 
too moved

>  <fragmenstein_mode>  (1195) 
expansion

>  <fragmenstein_error>  (1195) 


$$$$
C42692-P56
     RDKit          3D

 44 46  0  0  0  0  0  0  0  0999 V2000
   -2.0394   -8.9673   34.2214 C   0  0  0  0  0  0  0  0  0  0  0  0
   -1.8738   -7.5421   34.7550 C   0  0  0  0  0  0  0  0  0  0  0  0
   -0.5651   -6.7936   34.4681 C   0  0  0  0  0  0  0  0  0  0  0  0
    0.4822   -7.3772   35.3947 C   0  0  0  0  0  0  0  0  0  0  0  0
   -0.1782   -6.9995   33.0925 N   0  0  0  0  0  0  0  0  0  0  0  0
   -1.0482   -7.1658   31.8120 C   0  0  0  0  0  0  0  0  0  0  0  0
   -2.2075   -7.2383   31.6892 O   0  0  0  0  0  0  0  0  0  0  0  0
   -0.1331   -7.3380   30.6347 C   0  0  0  0  0  0  0  0  0  0  0  0
    0.0847   -6.1019   29.8386 C   0  0  0  0  0  0  0  0  0  0  0  0
   -0.2706   -5.8097   28.5298 C   0  0  0  0  0  0  0  0  0  0  0  0
   -0.8364   -6.6549   27.4641 C   0  0  0  0  0  0  0  0  0  0  0  0
    0.0186   -4.4871   28.3201 N   0  0  0  0  0  0  0  0  0  0  0  0
    0.7314   -3.9811   29.3658 C   0  0  0  0  0  0  0  0  0  0  0  0
    1.2707   -2.7116   29.5446 C   0  0  0  0  0  0  0  0  0  0  0  0
    1.9748   -2.4890   30.7245 C   0  0  0  0  0  0  0  0  0  0  0  0
    2.1690   -3.5069   31.6479 C   0  0  0  0  0  0  0  0  0  0  0  0
    1.6323   -4.7702   31.4354 C   0  0  0  0  0  0  0  0  0  0  0  0
    0.8518   -4.9984   30.2984 C   0  0  0  0  0  0  0  0  0  0  0  0
   -0.5103   -5.3151   34.8214 C   0  0  0  0  0  0  0  0  0  0  0  0
    0.1477   -4.4099   34.1272 N   0  0  0  0  0  0  0  0  0  0  0  0
    0.2272   -3.2267   34.8263 C   0  0  0  0  0  0  0  0  0  0  0  0
   -0.3490   -3.2241   36.0734 C   0  0  0  0  0  0  0  0  0  0  0  0
   -0.9889   -4.7697   36.4051 S   0  0  0  0  0  0  0  0  0  0  0  0
   -1.1457   -9.5761   34.3480 H   0  0  0  0  0  0  0  0  0  0  0  0
   -2.8483   -9.4455   34.7832 H   0  0  0  0  0  0  0  0  0  0  0  0
   -2.3305   -9.0147   33.1733 H   0  0  0  0  0  0  0  0  0  0  0  0
   -2.0044   -7.5955   35.8379 H   0  0  0  0  0  0  0  0  0  0  0  0
   -2.6991   -6.9759   34.3711 H   0  0  0  0  0  0  0  0  0  0  0  0
    1.4908   -7.3989   34.9840 H   0  0  0  0  0  0  0  0  0  0  0  0
    0.5546   -6.8699   36.3533 H   0  0  0  0  0  0  0  0  0  0  0  0
    0.1133   -8.3507   35.6613 H   0  0  0  0  0  0  0  0  0  0  0  0
    0.8063   -7.0553   32.8446 H   0  0  0  0  0  0  0  0  0  0  0  0
    0.7896   -7.6546   31.0947 H   0  0  0  0  0  0  0  0  0  0  0  0
   -0.5020   -8.1631   30.0181 H   0  0  0  0  0  0  0  0  0  0  0  0
   -0.3662   -7.6428   27.4767 H   0  0  0  0  0  0  0  0  0  0  0  0
   -0.6804   -6.2328   26.4694 H   0  0  0  0  0  0  0  0  0  0  0  0
   -1.9043   -6.7682   27.6192 H   0  0  0  0  0  0  0  0  0  0  0  0
   -0.2173   -3.9403   27.5105 H   0  0  0  0  0  0  0  0  0  0  0  0
    1.1544   -1.9293   28.8016 H   0  0  0  0  0  0  0  0  0  0  0  0
    2.4075   -1.5085   30.9083 H   0  0  0  0  0  0  0  0  0  0  0  0
    2.7456   -3.3193   32.5501 H   0  0  0  0  0  0  0  0  0  0  0  0
    1.8270   -5.5322   32.1759 H   0  0  0  0  0  0  0  0  0  0  0  0
    0.7188   -2.3781   34.3673 H   0  0  0  0  0  0  0  0  0  0  0  0
   -0.4055   -2.4151   36.7861 H   0  0  0  0  0  0  0  0  0  0  0  0
  1  2  1  0
  2  3  1  0
  3  4  1  0
  3  5  1  0
  5  6  1  0
  6  7  2  0
  6  8  1  0
  8  9  1  0
  9 10  2  0
 10 11  1  0
 10 12  1  0
 12 13  1  0
 13 14  2  0
 14 15  1  0
 15 16  2  0
 16 17  1  0
 17 18  2  0
  3 19  1  0
 19 20  2  0
 20 21  1  0
 21 22  2  0
 22 23  1  0
 18  9  1  0
 23 19  1  0
 18 13  1  0
  1 24  1  0
  1 25  1  0
  1 26  1  0
  2 27  1  0
  2 28  1  0
  4 29  1  0
  4 30  1  0
  4 31  1  0
  5 32  1  0
  8 33  1  0
  8 34  1  0
 11 35  1  0
 11 36  1  0
 11 37  1  0
 12 38  1  0
 14 39  1  0
 15 40  1  0
 16 41  1  0
 17 42  1  0
 21 43  1  0
 22 44  1  0
M  END
>  <Energy>  (1196) 
90.266489440003312

>  <compound_id>  (1196) 
42692

>  <target_id>  (1196) 
1

>  <reference_id>  (1196) 
56

>  <inspiration_ids>  (1196) 
[40, 56]

>  <energy_score>  (1196) 
-24.277503450798818

>  <distance_score>  (1196) 
2.059083311509179

>  <path>  (1196) 
/opt/xchem-fragalysis-2/maxwin/BulkDock/SCRATCH/511023/C42692-P56/C42692-P56.minimised.mol

>  <scratch_subdir>  (1196) 
/opt/xchem-fragalysis-2/maxwin/BulkDock/SCRATCH/511023/C42692-P56

>  <fragmenstein_runtime>  (1196) 
11.971640348434448

>  <fragmenstein_outcome>  (1196) 
too moved

>  <fragmenstein_mode>  (1196) 
expansion

>  <fragmenstein_error>  (1196) 


$$$$
C47086-P40
     RDKit          3D

 31 33  0  0  0  0  0  0  0  0999 V2000
    1.0807   -7.1542   34.6862 O   0  0  0  0  0  0  0  0  0  0  0  0
    0.2956   -6.3481   34.5022 C   0  0  0  0  0  0  0  0  0  0  0  0
   -0.6802   -6.1540   33.3156 N   0  0  0  0  0  0  0  0  0  0  0  0
   -0.7986   -6.8766   32.0835 C   0  0  0  0  0  0  0  0  0  0  0  0
   -0.1607   -6.0770   30.9669 C   0  0  0  0  0  0  0  0  0  0  0  0
   -0.2148   -4.6727   30.9379 C   0  0  0  0  0  0  0  0  0  0  0  0
    0.4513   -3.9244   29.9646 C   0  0  0  0  0  0  0  0  0  0  0  0
    1.2214   -4.6237   29.0382 C   0  0  0  0  0  0  0  0  0  0  0  0
    2.0197   -4.1457   28.0251 N   0  0  0  0  0  0  0  0  0  0  0  0
    2.6296   -5.1864   27.3807 C   0  0  0  0  0  0  0  0  0  0  0  0
    2.2169   -6.3504   27.9859 C   0  0  0  0  0  0  0  0  0  0  0  0
    1.2953   -6.0142   29.0147 C   0  0  0  0  0  0  0  0  0  0  0  0
    0.5295   -6.7490   29.9455 C   0  0  0  0  0  0  0  0  0  0  0  0
   -0.0385   -5.0649   35.3179 N   0  0  0  0  0  0  0  0  0  0  0  0
    0.5776   -4.5274   36.4083 C   0  0  0  0  0  0  0  0  0  0  0  0
    0.5093   -3.2099   36.8900 C   0  0  0  0  0  0  0  0  0  0  0  0
    1.3153   -3.0166   37.9364 N   0  0  0  0  0  0  0  0  0  0  0  0
    1.8892   -4.2527   38.1834 O   0  0  0  0  0  0  0  0  0  0  0  0
    1.4637   -5.1404   37.2492 C   0  0  0  0  0  0  0  0  0  0  0  0
   -1.2977   -5.3840   33.5082 H   0  0  0  0  0  0  0  0  0  0  0  0
   -0.2797   -7.8310   32.2133 H   0  0  0  0  0  0  0  0  0  0  0  0
   -1.8473   -7.0743   31.8688 H   0  0  0  0  0  0  0  0  0  0  0  0
   -0.7711   -4.1209   31.6917 H   0  0  0  0  0  0  0  0  0  0  0  0
    0.3980   -2.8396   29.9587 H   0  0  0  0  0  0  0  0  0  0  0  0
    2.1471   -3.1630   27.8151 H   0  0  0  0  0  0  0  0  0  0  0  0
    3.3254   -5.0091   26.5701 H   0  0  0  0  0  0  0  0  0  0  0  0
    2.5618   -7.3282   27.6880 H   0  0  0  0  0  0  0  0  0  0  0  0
    0.5475   -7.8349   29.9310 H   0  0  0  0  0  0  0  0  0  0  0  0
   -0.7362   -4.5270   34.8324 H   0  0  0  0  0  0  0  0  0  0  0  0
   -0.0644   -2.3729   36.5194 H   0  0  0  0  0  0  0  0  0  0  0  0
    1.8797   -6.1341   37.3223 H   0  0  0  0  0  0  0  0  0  0  0  0
  1  2  2  0
  2  3  1  0
  3  4  1  0
  4  5  1  0
  5  6  2  0
  6  7  1  0
  7  8  2  0
  8  9  1  0
  9 10  1  0
 10 11  2  0
 11 12  1  0
 12 13  2  0
  2 14  1  0
 14 15  1  0
 15 16  1  0
 16 17  2  0
 17 18  1  0
 18 19  1  0
 13  5  1  0
 19 15  2  0
 12  8  1  0
  3 20  1  0
  4 21  1  0
  4 22  1  0
  6 23  1  0
  7 24  1  0
  9 25  1  0
 10 26  1  0
 11 27  1  0
 13 28  1  0
 14 29  1  0
 16 30  1  0
 19 31  1  0
M  END
>  <Energy>  (1197) 
-14.119877870473037

>  <compound_id>  (1197) 
47086

>  <target_id>  (1197) 
1

>  <reference_id>  (1197) 
40

>  <inspiration_ids>  (1197) 
[40, 56]

>  <energy_score>  (1197) 
-7.736177158157517

>  <distance_score>  (1197) 
1.3359180918741396

>  <path>  (1197) 
/opt/xchem-fragalysis-2/maxwin/BulkDock/SCRATCH/511023/C47086-P40/C47086-P40.minimised.mol

>  <scratch_subdir>  (1197) 
/opt/xchem-fragalysis-2/maxwin/BulkDock/SCRATCH/511023/C47086-P40

>  <fragmenstein_runtime>  (1197) 
1.7738842964172363

>  <fragmenstein_outcome>  (1197) 
too moved

>  <fragmenstein_mode>  (1197) 
expansion

>  <fragmenstein_error>  (1197) 


$$$$
C47086-P56
     RDKit          3D

 31 33  0  0  0  0  0  0  0  0999 V2000
    1.3367   -6.3835   35.5408 O   0  0  0  0  0  0  0  0  0  0  0  0
    0.3527   -5.8410   35.3717 C   0  0  0  0  0  0  0  0  0  0  0  0
   -0.7490   -6.0803   34.3198 N   0  0  0  0  0  0  0  0  0  0  0  0
   -0.7920   -6.9795   33.2198 C   0  0  0  0  0  0  0  0  0  0  0  0
   -0.4754   -6.3049   31.9095 C   0  0  0  0  0  0  0  0  0  0  0  0
   -0.1644   -4.9412   31.7628 C   0  0  0  0  0  0  0  0  0  0  0  0
    0.0420   -4.3557   30.5061 C   0  0  0  0  0  0  0  0  0  0  0  0
   -0.1038   -5.1872   29.3966 C   0  0  0  0  0  0  0  0  0  0  0  0
   -0.0897   -4.9003   28.0529 N   0  0  0  0  0  0  0  0  0  0  0  0
   -0.3415   -6.0442   27.3349 C   0  0  0  0  0  0  0  0  0  0  0  0
   -0.3784   -7.0958   28.2112 C   0  0  0  0  0  0  0  0  0  0  0  0
   -0.3476   -6.5531   29.5101 C   0  0  0  0  0  0  0  0  0  0  0  0
   -0.5092   -7.1192   30.7759 C   0  0  0  0  0  0  0  0  0  0  0  0
   -0.2269   -4.5835   36.0621 N   0  0  0  0  0  0  0  0  0  0  0  0
    0.3257   -3.7530   36.9816 C   0  0  0  0  0  0  0  0  0  0  0  0
    1.6854   -3.6109   37.3093 C   0  0  0  0  0  0  0  0  0  0  0  0
    1.8745   -2.6563   38.2237 N   0  0  0  0  0  0  0  0  0  0  0  0
    0.6039   -2.1865   38.5235 O   0  0  0  0  0  0  0  0  0  0  0  0
   -0.3116   -2.8258   37.7514 C   0  0  0  0  0  0  0  0  0  0  0  0
   -1.4554   -5.3629   34.3988 H   0  0  0  0  0  0  0  0  0  0  0  0
   -1.7995   -7.4056   33.1862 H   0  0  0  0  0  0  0  0  0  0  0  0
   -0.0668   -7.7757   33.4060 H   0  0  0  0  0  0  0  0  0  0  0  0
   -0.0762   -4.3006   32.6381 H   0  0  0  0  0  0  0  0  0  0  0  0
    0.2589   -3.2972   30.4078 H   0  0  0  0  0  0  0  0  0  0  0  0
    0.0453   -3.9693   27.6786 H   0  0  0  0  0  0  0  0  0  0  0  0
   -0.3901   -6.0587   26.2589 H   0  0  0  0  0  0  0  0  0  0  0  0
   -0.4374   -8.1415   27.9563 H   0  0  0  0  0  0  0  0  0  0  0  0
   -0.6750   -8.1873   30.8683 H   0  0  0  0  0  0  0  0  0  0  0  0
   -1.1618   -4.4153   35.7298 H   0  0  0  0  0  0  0  0  0  0  0  0
    2.5402   -4.1320   36.9035 H   0  0  0  0  0  0  0  0  0  0  0  0
   -1.3346   -2.5127   37.8892 H   0  0  0  0  0  0  0  0  0  0  0  0
  1  2  2  0
  2  3  1  0
  3  4  1  0
  4  5  1  0
  5  6  2  0
  6  7  1  0
  7  8  2  0
  8  9  1  0
  9 10  1  0
 10 11  2  0
 11 12  1  0
 12 13  2  0
  2 14  1  0
 14 15  1  0
 15 16  1  0
 16 17  2  0
 17 18  1  0
 18 19  1  0
 13  5  1  0
 19 15  2  0
 12  8  1  0
  3 20  1  0
  4 21  1  0
  4 22  1  0
  6 23  1  0
  7 24  1  0
  9 25  1  0
 10 26  1  0
 11 27  1  0
 13 28  1  0
 14 29  1  0
 16 30  1  0
 19 31  1  0
M  END
>  <Energy>  (1198) 
-14.532574481225428

>  <compound_id>  (1198) 
47086

>  <target_id>  (1198) 
1

>  <reference_id>  (1198) 
56

>  <inspiration_ids>  (1198) 
[40, 56]

>  <energy_score>  (1198) 
-8.148873768911812

>  <distance_score>  (1198) 
1.417599778881953

>  <path>  (1198) 
/opt/xchem-fragalysis-2/maxwin/BulkDock/SCRATCH/511023/C47086-P56/C47086-P56.minimised.mol

>  <scratch_subdir>  (1198) 
/opt/xchem-fragalysis-2/maxwin/BulkDock/SCRATCH/511023/C47086-P56

>  <fragmenstein_runtime>  (1198) 
1.9698681831359863

>  <fragmenstein_outcome>  (1198) 
too moved

>  <fragmenstein_mode>  (1198) 
expansion

>  <fragmenstein_error>  (1198) 


$$$$
C29874-P40
     RDKit          3D

 31 33  0  0  0  0  0  0  0  0999 V2000
    1.5788   -6.7452   34.2158 O   0  0  0  0  0  0  0  0  0  0  0  0
    0.5527   -6.2539   34.2946 C   0  0  0  0  0  0  0  0  0  0  0  0
   -0.6735   -6.3382   33.3491 N   0  0  0  0  0  0  0  0  0  0  0  0
   -0.8205   -6.9773   32.0747 C   0  0  0  0  0  0  0  0  0  0  0  0
   -0.1849   -6.1388   30.9891 C   0  0  0  0  0  0  0  0  0  0  0  0
   -0.2367   -4.7358   31.0105 C   0  0  0  0  0  0  0  0  0  0  0  0
    0.4209   -3.9578   30.0534 C   0  0  0  0  0  0  0  0  0  0  0  0
    1.1849   -4.6272   29.0981 C   0  0  0  0  0  0  0  0  0  0  0  0
    1.9715   -4.1198   28.0896 N   0  0  0  0  0  0  0  0  0  0  0  0
    2.5928   -5.1405   27.4228 C   0  0  0  0  0  0  0  0  0  0  0  0
    2.1917   -6.3218   28.0014 C   0  0  0  0  0  0  0  0  0  0  0  0
    1.2667   -6.0158   29.0365 C   0  0  0  0  0  0  0  0  0  0  0  0
    0.5063   -6.7787   29.9471 C   0  0  0  0  0  0  0  0  0  0  0  0
    0.0077   -5.2218   35.3269 N   0  0  0  0  0  0  0  0  0  0  0  0
    0.6444   -4.5704   36.3497 C   0  0  0  0  0  0  0  0  0  0  0  0
    0.0244   -3.7395   37.3264 C   0  0  0  0  0  0  0  0  0  0  0  0
    0.8208   -3.1563   38.2182 N   0  0  0  0  0  0  0  0  0  0  0  0
    2.3894   -3.5746   37.8676 S   0  0  0  0  0  0  0  0  0  0  0  0
    2.0079   -4.5924   36.5478 C   0  0  0  0  0  0  0  0  0  0  0  0
   -1.3933   -5.7154   33.6726 H   0  0  0  0  0  0  0  0  0  0  0  0
   -1.8748   -7.1535   31.8674 H   0  0  0  0  0  0  0  0  0  0  0  0
   -0.3120   -7.9431   32.1477 H   0  0  0  0  0  0  0  0  0  0  0  0
   -0.7810   -4.2138   31.7948 H   0  0  0  0  0  0  0  0  0  0  0  0
    0.3689   -2.8733   30.0835 H   0  0  0  0  0  0  0  0  0  0  0  0
    2.0889   -3.1316   27.9008 H   0  0  0  0  0  0  0  0  0  0  0  0
    3.2874   -4.9373   26.6174 H   0  0  0  0  0  0  0  0  0  0  0  0
    2.5462   -7.2909   27.6860 H   0  0  0  0  0  0  0  0  0  0  0  0
    0.5318   -7.8635   29.9031 H   0  0  0  0  0  0  0  0  0  0  0  0
   -0.9697   -5.0557   35.1562 H   0  0  0  0  0  0  0  0  0  0  0  0
   -1.0347   -3.5352   37.4138 H   0  0  0  0  0  0  0  0  0  0  0  0
    2.7766   -5.1095   35.9915 H   0  0  0  0  0  0  0  0  0  0  0  0
  1  2  2  0
  2  3  1  0
  3  4  1  0
  4  5  1  0
  5  6  2  0
  6  7  1  0
  7  8  2  0
  8  9  1  0
  9 10  1  0
 10 11  2  0
 11 12  1  0
 12 13  2  0
  2 14  1  0
 14 15  1  0
 15 16  1  0
 16 17  2  0
 17 18  1  0
 18 19  1  0
 13  5  1  0
 19 15  2  0
 12  8  1  0
  3 20  1  0
  4 21  1  0
  4 22  1  0
  6 23  1  0
  7 24  1  0
  9 25  1  0
 10 26  1  0
 11 27  1  0
 13 28  1  0
 14 29  1  0
 16 30  1  0
 19 31  1  0
M  END
>  <Energy>  (1199) 
-16.514094065820466

>  <compound_id>  (1199) 
29874

>  <target_id>  (1199) 
1

>  <reference_id>  (1199) 
40

>  <inspiration_ids>  (1199) 
[40, 56]

>  <energy_score>  (1199) 
-14.716224809268624

>  <distance_score>  (1199) 
0.9557074557904696

>  <path>  (1199) 
/opt/xchem-fragalysis-2/maxwin/BulkDock/SCRATCH/511023/C29874-P40/C29874-P40.minimised.mol

>  <scratch_subdir>  (1199) 
/opt/xchem-fragalysis-2/maxwin/BulkDock/SCRATCH/511023/C29874-P40

>  <fragmenstein_runtime>  (1199) 
1.8187780380249023

>  <fragmenstein_outcome>  (1199) 
acceptable

>  <fragmenstein_mode>  (1199) 
expansion

>  <fragmenstein_error>  (1199) 


$$$$
C29874-P56
     RDKit          3D

 31 33  0  0  0  0  0  0  0  0999 V2000
    0.5364   -6.6550   36.1332 O   0  0  0  0  0  0  0  0  0  0  0  0
   -0.0003   -5.8164   35.5873 C   0  0  0  0  0  0  0  0  0  0  0  0
   -0.6726   -5.8013   34.2087 N   0  0  0  0  0  0  0  0  0  0  0  0
   -0.7268   -6.7989   33.2010 C   0  0  0  0  0  0  0  0  0  0  0  0
   -0.4012   -6.2081   31.8519 C   0  0  0  0  0  0  0  0  0  0  0  0
   -0.0245   -4.8651   31.6463 C   0  0  0  0  0  0  0  0  0  0  0  0
    0.1498   -4.3255   30.3704 C   0  0  0  0  0  0  0  0  0  0  0  0
   -0.0672   -5.1896   29.3040 C   0  0  0  0  0  0  0  0  0  0  0  0
   -0.0853   -4.9433   27.9556 N   0  0  0  0  0  0  0  0  0  0  0  0
   -0.3618   -6.1030   27.2754 C   0  0  0  0  0  0  0  0  0  0  0  0
   -0.3917   -7.1260   28.1863 C   0  0  0  0  0  0  0  0  0  0  0  0
   -0.3402   -6.5443   29.4680 C   0  0  0  0  0  0  0  0  0  0  0  0
   -0.4928   -7.0641   30.7548 C   0  0  0  0  0  0  0  0  0  0  0  0
   -0.1790   -4.3268   35.9702 N   0  0  0  0  0  0  0  0  0  0  0  0
    0.3356   -3.6165   37.0123 C   0  0  0  0  0  0  0  0  0  0  0  0
    0.7167   -4.1140   38.2827 C   0  0  0  0  0  0  0  0  0  0  0  0
    1.2579   -3.2458   39.1333 N   0  0  0  0  0  0  0  0  0  0  0  0
    1.4556   -1.8061   38.3366 S   0  0  0  0  0  0  0  0  0  0  0  0
    0.6384   -2.2790   36.9115 C   0  0  0  0  0  0  0  0  0  0  0  0
   -1.1271   -4.9146   34.0640 H   0  0  0  0  0  0  0  0  0  0  0  0
   -1.7428   -7.2056   33.1984 H   0  0  0  0  0  0  0  0  0  0  0  0
   -0.0215   -7.5944   33.4554 H   0  0  0  0  0  0  0  0  0  0  0  0
    0.1422   -4.1981   32.4884 H   0  0  0  0  0  0  0  0  0  0  0  0
    0.4049   -3.2811   30.2261 H   0  0  0  0  0  0  0  0  0  0  0  0
    0.0685   -4.0256   27.5589 H   0  0  0  0  0  0  0  0  0  0  0  0
   -0.4263   -6.1445   26.1995 H   0  0  0  0  0  0  0  0  0  0  0  0
   -0.4575   -8.1795   27.9680 H   0  0  0  0  0  0  0  0  0  0  0  0
   -0.6934   -8.1212   30.8924 H   0  0  0  0  0  0  0  0  0  0  0  0
   -0.6392   -3.8386   35.2230 H   0  0  0  0  0  0  0  0  0  0  0  0
    0.5835   -5.1257   38.6324 H   0  0  0  0  0  0  0  0  0  0  0  0
    0.5074   -1.5974   36.0850 H   0  0  0  0  0  0  0  0  0  0  0  0
  1  2  2  0
  2  3  1  0
  3  4  1  0
  4  5  1  0
  5  6  2  0
  6  7  1  0
  7  8  2  0
  8  9  1  0
  9 10  1  0
 10 11  2  0
 11 12  1  0
 12 13  2  0
  2 14  1  0
 14 15  1  0
 15 16  1  0
 16 17  2  0
 17 18  1  0
 18 19  1  0
 13  5  1  0
 19 15  2  0
 12  8  1  0
  3 20  1  0
  4 21  1  0
  4 22  1  0
  6 23  1  0
  7 24  1  0
  9 25  1  0
 10 26  1  0
 11 27  1  0
 13 28  1  0
 14 29  1  0
 16 30  1  0
 19 31  1  0
M  END
>  <Energy>  (1200) 
-11.803084222161665

>  <compound_id>  (1200) 
29874

>  <target_id>  (1200) 
1

>  <reference_id>  (1200) 
56

>  <inspiration_ids>  (1200) 
[40, 56]

>  <energy_score>  (1200) 
-10.005214965611087

>  <distance_score>  (1200) 
1.5845192751002386

>  <path>  (1200) 
/opt/xchem-fragalysis-2/maxwin/BulkDock/SCRATCH/511023/C29874-P56/C29874-P56.minimised.mol

>  <scratch_subdir>  (1200) 
/opt/xchem-fragalysis-2/maxwin/BulkDock/SCRATCH/511023/C29874-P56

>  <fragmenstein_runtime>  (1200) 
3.2060766220092773

>  <fragmenstein_outcome>  (1200) 
too moved

>  <fragmenstein_mode>  (1200) 
expansion

>  <fragmenstein_error>  (1200) 


$$$$
C26233-P40
     RDKit          3D

 41 44  0  0  0  0  0  0  0  0999 V2000
    1.3756   -7.4905   34.6105 O   0  0  0  0  0  0  0  0  0  0  0  0
    0.5915   -6.6635   34.5936 C   0  0  0  0  0  0  0  0  0  0  0  0
   -0.4834   -6.3245   33.5303 N   0  0  0  0  0  0  0  0  0  0  0  0
   -0.7238   -6.8969   32.2374 C   0  0  0  0  0  0  0  0  0  0  0  0
   -0.1249   -6.0645   31.1316 C   0  0  0  0  0  0  0  0  0  0  0  0
   -0.1753   -4.6636   31.1460 C   0  0  0  0  0  0  0  0  0  0  0  0
    0.4424   -3.8956   30.1533 C   0  0  0  0  0  0  0  0  0  0  0  0
    1.1663   -4.5735   29.1713 C   0  0  0  0  0  0  0  0  0  0  0  0
    1.9166   -4.0780   28.1295 N   0  0  0  0  0  0  0  0  0  0  0  0
    2.5198   -5.1064   27.4567 C   0  0  0  0  0  0  0  0  0  0  0  0
    2.1281   -6.2816   28.0536 C   0  0  0  0  0  0  0  0  0  0  0  0
    1.2390   -5.9624   29.1152 C   0  0  0  0  0  0  0  0  0  0  0  0
    0.5108   -6.7137   30.0592 C   0  0  0  0  0  0  0  0  0  0  0  0
    0.2489   -5.5825   35.6574 N   0  0  0  0  0  0  0  0  0  0  0  0
    0.8950   -5.2680   36.9219 C   0  0  0  0  0  0  0  0  0  0  0  0
   -0.0864   -5.2890   38.1105 C   0  0  0  0  0  0  0  0  0  0  0  0
    0.6689   -4.0644   38.6759 C   0  0  0  0  0  0  0  0  0  0  0  0
   -0.2281   -2.9911   39.3444 C   0  0  0  0  0  0  0  0  0  0  0  0
   -1.3534   -3.2622   40.1471 C   0  0  0  0  0  0  0  0  0  0  0  0
   -1.8021   -2.0185   40.5077 C   0  0  0  0  0  0  0  0  0  0  0  0
   -0.9998   -1.0680   39.9660 O   0  0  0  0  0  0  0  0  0  0  0  0
    0.0036   -1.6805   39.2298 N   0  0  0  0  0  0  0  0  0  0  0  0
    1.0994   -3.7629   37.2175 C   0  0  0  0  0  0  0  0  0  0  0  0
   -1.0679   -5.5786   33.8663 H   0  0  0  0  0  0  0  0  0  0  0  0
   -0.2782   -7.8962   32.2446 H   0  0  0  0  0  0  0  0  0  0  0  0
   -1.7972   -7.0072   32.0913 H   0  0  0  0  0  0  0  0  0  0  0  0
   -0.6885   -4.1379   31.9487 H   0  0  0  0  0  0  0  0  0  0  0  0
    0.3945   -2.8107   30.1771 H   0  0  0  0  0  0  0  0  0  0  0  0
    2.0295   -3.0919   27.9273 H   0  0  0  0  0  0  0  0  0  0  0  0
    3.1946   -4.9117   26.6327 H   0  0  0  0  0  0  0  0  0  0  0  0
    2.4710   -7.2552   27.7403 H   0  0  0  0  0  0  0  0  0  0  0  0
    0.5229   -7.7991   30.0163 H   0  0  0  0  0  0  0  0  0  0  0  0
   -0.4461   -4.9530   35.2894 H   0  0  0  0  0  0  0  0  0  0  0  0
    1.7964   -5.8692   37.0907 H   0  0  0  0  0  0  0  0  0  0  0  0
   -1.1312   -5.1013   37.8329 H   0  0  0  0  0  0  0  0  0  0  0  0
   -0.0488   -6.1896   38.7307 H   0  0  0  0  0  0  0  0  0  0  0  0
    1.5143   -4.3460   39.3176 H   0  0  0  0  0  0  0  0  0  0  0  0
   -1.7849   -4.2141   40.4202 H   0  0  0  0  0  0  0  0  0  0  0  0
   -2.6231   -1.6527   41.1061 H   0  0  0  0  0  0  0  0  0  0  0  0
    2.1243   -3.3997   37.0983 H   0  0  0  0  0  0  0  0  0  0  0  0
    0.4248   -3.0986   36.6629 H   0  0  0  0  0  0  0  0  0  0  0  0
  1  2  2  0
  2  3  1  0
  3  4  1  0
  4  5  1  0
  5  6  2  0
  6  7  1  0
  7  8  2  0
  8  9  1  0
  9 10  1  0
 10 11  2  0
 11 12  1  0
 12 13  2  0
  2 14  1  0
 14 15  1  0
 15 16  1  0
 16 17  1  0
 17 18  1  0
 18 19  1  0
 19 20  2  0
 20 21  1  0
 21 22  1  0
 17 23  1  0
 13  5  1  0
 23 15  1  0
 12  8  1  0
 22 18  2  0
  3 24  1  0
  4 25  1  0
  4 26  1  0
  6 27  1  0
  7 28  1  0
  9 29  1  0
 10 30  1  0
 11 31  1  0
 13 32  1  0
 14 33  1  0
 15 34  1  0
 16 35  1  0
 16 36  1  0
 17 37  1  0
 19 38  1  0
 20 39  1  0
 23 40  1  0
 23 41  1  0
M  END
>  <Energy>  (1201) 
-30.65446880486445

>  <compound_id>  (1201) 
26233

>  <target_id>  (1201) 
1

>  <reference_id>  (1201) 
40

>  <inspiration_ids>  (1201) 
[40, 56]

>  <energy_score>  (1201) 
2.7049967501809817

>  <distance_score>  (1201) 
1.02060875437656

>  <path>  (1201) 
/opt/xchem-fragalysis-2/maxwin/BulkDock/SCRATCH/511023/C26233-P40/C26233-P40.minimised.mol

>  <scratch_subdir>  (1201) 
/opt/xchem-fragalysis-2/maxwin/BulkDock/SCRATCH/511023/C26233-P40

>  <fragmenstein_runtime>  (1201) 
3.5013020038604736

>  <fragmenstein_outcome>  (1201) 
too moved

>  <fragmenstein_mode>  (1201) 
expansion

>  <fragmenstein_error>  (1201) 


$$$$
C26233-P56
     RDKit          3D

 41 44  0  0  0  0  0  0  0  0999 V2000
    1.0938   -6.9140   35.8035 O   0  0  0  0  0  0  0  0  0  0  0  0
    0.3937   -6.0689   35.5144 C   0  0  0  0  0  0  0  0  0  0  0  0
   -0.5693   -5.9406   34.3249 N   0  0  0  0  0  0  0  0  0  0  0  0
   -0.7783   -6.7989   33.2146 C   0  0  0  0  0  0  0  0  0  0  0  0
   -0.4404   -6.1684   31.8944 C   0  0  0  0  0  0  0  0  0  0  0  0
   -0.1374   -4.8093   31.7109 C   0  0  0  0  0  0  0  0  0  0  0  0
    0.0658   -4.2633   30.4383 C   0  0  0  0  0  0  0  0  0  0  0  0
   -0.0846   -5.1287   29.3561 C   0  0  0  0  0  0  0  0  0  0  0  0
   -0.0744   -4.8800   28.0065 N   0  0  0  0  0  0  0  0  0  0  0  0
   -0.3404   -6.0396   27.3193 C   0  0  0  0  0  0  0  0  0  0  0  0
   -0.3783   -7.0678   28.2230 C   0  0  0  0  0  0  0  0  0  0  0  0
   -0.3285   -6.4905   29.5065 C   0  0  0  0  0  0  0  0  0  0  0  0
   -0.4808   -7.0196   30.7872 C   0  0  0  0  0  0  0  0  0  0  0  0
    0.1384   -4.7062   36.1974 N   0  0  0  0  0  0  0  0  0  0  0  0
    0.7874   -4.0930   37.3349 C   0  0  0  0  0  0  0  0  0  0  0  0
    0.0567   -4.4060   38.6528 C   0  0  0  0  0  0  0  0  0  0  0  0
    0.3908   -2.9696   39.0947 C   0  0  0  0  0  0  0  0  0  0  0  0
   -0.7169   -2.2268   39.8819 C   0  0  0  0  0  0  0  0  0  0  0  0
   -1.8100   -2.8227   40.5411 C   0  0  0  0  0  0  0  0  0  0  0  0
   -2.4893   -1.7594   41.0756 C   0  0  0  0  0  0  0  0  0  0  0  0
   -1.8463   -0.6058   40.7687 O   0  0  0  0  0  0  0  0  0  0  0  0
   -0.7202   -0.8963   40.0143 N   0  0  0  0  0  0  0  0  0  0  0  0
    0.4681   -2.6111   37.5901 C   0  0  0  0  0  0  0  0  0  0  0  0
   -1.1042   -5.0913   34.4127 H   0  0  0  0  0  0  0  0  0  0  0  0
   -0.1675   -7.6945   33.3669 H   0  0  0  0  0  0  0  0  0  0  0  0
   -1.8327   -7.0905   33.2238 H   0  0  0  0  0  0  0  0  0  0  0  0
   -0.0568   -4.1431   32.5668 H   0  0  0  0  0  0  0  0  0  0  0  0
    0.2777   -3.2075   30.3058 H   0  0  0  0  0  0  0  0  0  0  0  0
    0.0670   -3.9591   27.6114 H   0  0  0  0  0  0  0  0  0  0  0  0
   -0.3982   -6.0800   26.2439 H   0  0  0  0  0  0  0  0  0  0  0  0
   -0.4497   -8.1196   27.9980 H   0  0  0  0  0  0  0  0  0  0  0  0
   -0.6542   -8.0833   30.9129 H   0  0  0  0  0  0  0  0  0  0  0  0
   -0.4883   -4.1570   35.6333 H   0  0  0  0  0  0  0  0  0  0  0  0
    1.8626   -4.2910   37.3527 H   0  0  0  0  0  0  0  0  0  0  0  0
   -1.0101   -4.6286   38.5251 H   0  0  0  0  0  0  0  0  0  0  0  0
    0.4965   -5.1819   39.2798 H   0  0  0  0  0  0  0  0  0  0  0  0
    1.3645   -2.8993   39.5985 H   0  0  0  0  0  0  0  0  0  0  0  0
   -2.0825   -3.8652   40.6123 H   0  0  0  0  0  0  0  0  0  0  0  0
   -3.3894   -1.6530   41.6621 H   0  0  0  0  0  0  0  0  0  0  0  0
    1.2600   -1.9077   37.3171 H   0  0  0  0  0  0  0  0  0  0  0  0
   -0.4756   -2.2660   37.1492 H   0  0  0  0  0  0  0  0  0  0  0  0
  1  2  2  0
  2  3  1  0
  3  4  1  0
  4  5  1  0
  5  6  2  0
  6  7  1  0
  7  8  2  0
  8  9  1  0
  9 10  1  0
 10 11  2  0
 11 12  1  0
 12 13  2  0
  2 14  1  0
 14 15  1  0
 15 16  1  0
 16 17  1  0
 17 18  1  0
 18 19  1  0
 19 20  2  0
 20 21  1  0
 21 22  1  0
 17 23  1  0
 13  5  1  0
 23 15  1  0
 12  8  1  0
 22 18  2  0
  3 24  1  0
  4 25  1  0
  4 26  1  0
  6 27  1  0
  7 28  1  0
  9 29  1  0
 10 30  1  0
 11 31  1  0
 13 32  1  0
 14 33  1  0
 15 34  1  0
 16 35  1  0
 16 36  1  0
 17 37  1  0
 19 38  1  0
 20 39  1  0
 23 40  1  0
 23 41  1  0
M  END
>  <Energy>  (1202) 
-29.509325934536864

>  <compound_id>  (1202) 
26233

>  <target_id>  (1202) 
1

>  <reference_id>  (1202) 
56

>  <inspiration_ids>  (1202) 
[40, 56]

>  <energy_score>  (1202) 
3.850139620506475

>  <distance_score>  (1202) 
1.4465550118871666

>  <path>  (1202) 
/opt/xchem-fragalysis-2/maxwin/BulkDock/SCRATCH/511023/C26233-P56/C26233-P56.minimised.mol

>  <scratch_subdir>  (1202) 
/opt/xchem-fragalysis-2/maxwin/BulkDock/SCRATCH/511023/C26233-P56

>  <fragmenstein_runtime>  (1202) 
3.2881686687469482

>  <fragmenstein_outcome>  (1202) 
too moved

>  <fragmenstein_mode>  (1202) 
expansion

>  <fragmenstein_error>  (1202) 


$$$$
C26234-P40
     RDKit          3D

 34 36  0  0  0  0  0  0  0  0999 V2000
    3.7700   -5.0232   26.4243 C   0  0  0  0  0  0  0  0  0  0  0  0
    2.7131   -5.2209   27.4468 C   0  0  0  0  0  0  0  0  0  0  0  0
    2.2234   -6.3768   28.0151 C   0  0  0  0  0  0  0  0  0  0  0  0
    1.2950   -6.0233   29.0302 C   0  0  0  0  0  0  0  0  0  0  0  0
    0.5154   -6.7442   29.9600 C   0  0  0  0  0  0  0  0  0  0  0  0
   -0.1592   -6.0574   30.9821 C   0  0  0  0  0  0  0  0  0  0  0  0
   -0.7890   -6.8428   32.1125 C   0  0  0  0  0  0  0  0  0  0  0  0
   -0.6558   -6.1139   33.3400 N   0  0  0  0  0  0  0  0  0  0  0  0
    0.2812   -6.3508   34.5509 C   0  0  0  0  0  0  0  0  0  0  0  0
    1.0136   -7.1986   34.7607 O   0  0  0  0  0  0  0  0  0  0  0  0
    0.0050   -5.0442   35.3438 N   0  0  0  0  0  0  0  0  0  0  0  0
    0.6237   -4.5330   36.4369 C   0  0  0  0  0  0  0  0  0  0  0  0
    1.4615   -5.2036   37.3412 C   0  0  0  0  0  0  0  0  0  0  0  0
    1.8555   -4.2287   38.2193 C   0  0  0  0  0  0  0  0  0  0  0  0
    1.3233   -3.0422   37.8442 O   0  0  0  0  0  0  0  0  0  0  0  0
    0.5162   -3.2378   36.7380 N   0  0  0  0  0  0  0  0  0  0  0  0
   -0.2006   -4.6530   30.9425 C   0  0  0  0  0  0  0  0  0  0  0  0
    0.4767   -3.9185   29.9661 C   0  0  0  0  0  0  0  0  0  0  0  0
    1.2467   -4.6326   29.0509 C   0  0  0  0  0  0  0  0  0  0  0  0
    2.0743   -4.1706   28.0537 N   0  0  0  0  0  0  0  0  0  0  0  0
    3.5928   -4.1185   25.8367 H   0  0  0  0  0  0  0  0  0  0  0  0
    4.7479   -4.9298   26.9072 H   0  0  0  0  0  0  0  0  0  0  0  0
    3.8086   -5.8769   25.7410 H   0  0  0  0  0  0  0  0  0  0  0  0
    2.5524   -7.3615   27.7242 H   0  0  0  0  0  0  0  0  0  0  0  0
    0.5233   -7.8302   29.9524 H   0  0  0  0  0  0  0  0  0  0  0  0
   -1.8406   -7.0363   31.9101 H   0  0  0  0  0  0  0  0  0  0  0  0
   -0.2760   -7.8004   32.2441 H   0  0  0  0  0  0  0  0  0  0  0  0
   -1.2321   -5.3066   33.5108 H   0  0  0  0  0  0  0  0  0  0  0  0
   -0.6475   -4.4741   34.8384 H   0  0  0  0  0  0  0  0  0  0  0  0
    1.7421   -6.2456   37.3517 H   0  0  0  0  0  0  0  0  0  0  0  0
    2.4914   -4.2041   39.0917 H   0  0  0  0  0  0  0  0  0  0  0  0
   -0.7492   -4.0888   31.6930 H   0  0  0  0  0  0  0  0  0  0  0  0
    0.4400   -2.8331   29.9570 H   0  0  0  0  0  0  0  0  0  0  0  0
    2.2295   -3.1897   27.8559 H   0  0  0  0  0  0  0  0  0  0  0  0
  1  2  1  0
  2  3  2  0
  3  4  1  0
  4  5  2  0
  5  6  1  0
  6  7  1  0
  7  8  1  0
  8  9  1  0
  9 10  2  0
  9 11  1  0
 11 12  1  0
 12 13  1  0
 13 14  2  0
 14 15  1  0
 15 16  1  0
  6 17  2  0
 17 18  1  0
 18 19  2  0
 19 20  1  0
 20  2  1  0
 19  4  1  0
 16 12  2  0
  1 21  1  0
  1 22  1  0
  1 23  1  0
  3 24  1  0
  5 25  1  0
  7 26  1  0
  7 27  1  0
  8 28  1  0
 11 29  1  0
 13 30  1  0
 14 31  1  0
 17 32  1  0
 18 33  1  0
 20 34  1  0
M  END
>  <Energy>  (1203) 
-46.912807474966471

>  <compound_id>  (1203) 
26234

>  <target_id>  (1203) 
1

>  <reference_id>  (1203) 
40

>  <inspiration_ids>  (1203) 
[40, 56]

>  <energy_score>  (1203) 
11.989842333609033

>  <distance_score>  (1203) 
1.076905633896031

>  <path>  (1203) 
/opt/xchem-fragalysis-2/maxwin/BulkDock/SCRATCH/511023/C26234-P40/C26234-P40.minimised.mol

>  <scratch_subdir>  (1203) 
/opt/xchem-fragalysis-2/maxwin/BulkDock/SCRATCH/511023/C26234-P40

>  <fragmenstein_runtime>  (1203) 
2.9463751316070557

>  <fragmenstein_outcome>  (1203) 
too moved

>  <fragmenstein_mode>  (1203) 
expansion

>  <fragmenstein_error>  (1203) 


$$$$
C26234-P56
     RDKit          3D

 34 36  0  0  0  0  0  0  0  0999 V2000
   -0.8626   -6.7775   26.1469 C   0  0  0  0  0  0  0  0  0  0  0  0
   -0.4590   -6.4419   27.5141 C   0  0  0  0  0  0  0  0  0  0  0  0
   -0.3295   -7.3293   28.5509 C   0  0  0  0  0  0  0  0  0  0  0  0
   -0.2441   -6.5774   29.7310 C   0  0  0  0  0  0  0  0  0  0  0  0
   -0.2924   -6.9472   31.0708 C   0  0  0  0  0  0  0  0  0  0  0  0
   -0.2431   -5.9641   32.0527 C   0  0  0  0  0  0  0  0  0  0  0  0
   -0.3890   -6.4351   33.4690 C   0  0  0  0  0  0  0  0  0  0  0  0
    0.2348   -5.5519   34.3832 N   0  0  0  0  0  0  0  0  0  0  0  0
   -0.0771   -5.2641   35.8597 C   0  0  0  0  0  0  0  0  0  0  0  0
   -0.9218   -5.6406   36.5185 O   0  0  0  0  0  0  0  0  0  0  0  0
    1.0333   -4.2362   36.1537 N   0  0  0  0  0  0  0  0  0  0  0  0
    1.3416   -3.5875   37.2920 C   0  0  0  0  0  0  0  0  0  0  0  0
    0.6421   -3.6448   38.5061 C   0  0  0  0  0  0  0  0  0  0  0  0
    1.3597   -2.8171   39.3244 C   0  0  0  0  0  0  0  0  0  0  0  0
    2.4072   -2.2903   38.6392 O   0  0  0  0  0  0  0  0  0  0  0  0
    2.3861   -2.7626   37.3411 N   0  0  0  0  0  0  0  0  0  0  0  0
   -0.1200   -4.6140   31.6762 C   0  0  0  0  0  0  0  0  0  0  0  0
   -0.0182   -4.2233   30.3345 C   0  0  0  0  0  0  0  0  0  0  0  0
   -0.1209   -5.2381   29.3838 C   0  0  0  0  0  0  0  0  0  0  0  0
   -0.2151   -5.1815   28.0115 N   0  0  0  0  0  0  0  0  0  0  0  0
   -0.5002   -6.1418   25.3552 H   0  0  0  0  0  0  0  0  0  0  0  0
   -0.5789   -7.7950   25.8990 H   0  0  0  0  0  0  0  0  0  0  0  0
   -1.9382   -6.7500   26.1410 H   0  0  0  0  0  0  0  0  0  0  0  0
   -0.3936   -8.4070   28.4918 H   0  0  0  0  0  0  0  0  0  0  0  0
   -0.3912   -7.9939   31.3346 H   0  0  0  0  0  0  0  0  0  0  0  0
    0.0838   -7.4120   33.6104 H   0  0  0  0  0  0  0  0  0  0  0  0
   -1.4453   -6.5349   33.7353 H   0  0  0  0  0  0  0  0  0  0  0  0
    1.0137   -4.9912   34.0874 H   0  0  0  0  0  0  0  0  0  0  0  0
    1.6671   -4.1945   35.3797 H   0  0  0  0  0  0  0  0  0  0  0  0
   -0.2430   -4.2117   38.7509 H   0  0  0  0  0  0  0  0  0  0  0  0
    1.2727   -2.5074   40.3544 H   0  0  0  0  0  0  0  0  0  0  0  0
   -0.1200   -3.8334   32.4358 H   0  0  0  0  0  0  0  0  0  0  0  0
    0.0600   -3.1780   30.0544 H   0  0  0  0  0  0  0  0  0  0  0  0
   -0.2225   -4.3085   27.5059 H   0  0  0  0  0  0  0  0  0  0  0  0
  1  2  1  0
  2  3  2  0
  3  4  1  0
  4  5  2  0
  5  6  1  0
  6  7  1  0
  7  8  1  0
  8  9  1  0
  9 10  2  0
  9 11  1  0
 11 12  1  0
 12 13  1  0
 13 14  2  0
 14 15  1  0
 15 16  1  0
  6 17  2  0
 17 18  1  0
 18 19  2  0
 19 20  1  0
 20  2  1  0
 19  4  1  0
 16 12  2  0
  1 21  1  0
  1 22  1  0
  1 23  1  0
  3 24  1  0
  5 25  1  0
  7 26  1  0
  7 27  1  0
  8 28  1  0
 11 29  1  0
 13 30  1  0
 14 31  1  0
 17 32  1  0
 18 33  1  0
 20 34  1  0
M  END
>  <Energy>  (1204) 
-46.56887286043402

>  <compound_id>  (1204) 
26234

>  <target_id>  (1204) 
1

>  <reference_id>  (1204) 
56

>  <inspiration_ids>  (1204) 
[40, 56]

>  <energy_score>  (1204) 
12.333776948142415

>  <distance_score>  (1204) 
1.7462396594239527

>  <path>  (1204) 
/opt/xchem-fragalysis-2/maxwin/BulkDock/SCRATCH/511023/C26234-P56/C26234-P56.minimised.mol

>  <scratch_subdir>  (1204) 
/opt/xchem-fragalysis-2/maxwin/BulkDock/SCRATCH/511023/C26234-P56

>  <fragmenstein_runtime>  (1204) 
3.9300451278686523

>  <fragmenstein_outcome>  (1204) 
too moved

>  <fragmenstein_mode>  (1204) 
expansion

>  <fragmenstein_error>  (1204) 


$$$$
C19099-P7
     RDKit          3D

 30 31  0  0  0  0  0  0  0  0999 V2000
  -12.3195  -10.4093   34.7089 C   0  0  0  0  0  0  0  0  0  0  0  0
  -10.4859  -10.2030   35.0598 C   0  0  0  0  0  0  0  0  0  0  0  0
   -8.9452  -11.6294   34.5170 C   0  0  0  0  0  0  0  0  0  0  0  0
   -9.2581  -13.1596   33.1242 C   0  0  0  0  0  0  0  0  0  0  0  0
  -10.3047  -14.6594   33.3372 C   0  0  0  0  0  0  0  0  0  0  0  0
   -9.9081  -16.0561   33.8143 C   0  0  0  0  0  0  0  0  0  0  0  0
   -8.6187  -16.5208   33.6257 C   0  0  0  0  0  0  0  0  0  0  0  0
   -7.8611  -15.6679   32.8266 C   0  0  0  0  0  0  0  0  0  0  0  0
   -7.9912  -14.1081   32.6194 N   0  0  0  0  0  0  0  0  0  0  0  0
  -11.3408  -10.7270   36.6118 C   0  0  0  0  0  0  0  0  0  0  0  0
  -12.5372  -10.6906   36.9148 O   0  0  0  0  0  0  0  0  0  0  0  0
  -10.5554  -11.1357   37.6374 O   0  0  0  0  0  0  0  0  0  0  0  0
  -10.3880   -9.2385   33.3204 N   0  0  0  0  0  0  0  0  0  0  0  0
   -9.7316   -9.6597   31.9753 C   0  0  0  0  0  0  0  0  0  0  0  0
   -9.3814   -8.6487   31.1372 C   0  0  0  0  0  0  0  0  0  0  0  0
   -9.1160   -7.7774   32.1404 C   0  0  0  0  0  0  0  0  0  0  0  0
   -9.9274   -7.8641   33.1804 N   0  0  0  0  0  0  0  0  0  0  0  0
  -12.8301  -10.4299   33.7694 H   0  0  0  0  0  0  0  0  0  0  0  0
  -12.7286  -11.3730   35.0606 H   0  0  0  0  0  0  0  0  0  0  0  0
  -12.8826   -9.5868   35.1681 H   0  0  0  0  0  0  0  0  0  0  0  0
   -9.1098  -11.6408   35.5529 H   0  0  0  0  0  0  0  0  0  0  0  0
   -7.9988  -11.1510   34.4763 H   0  0  0  0  0  0  0  0  0  0  0  0
  -11.3961  -14.7044   33.2441 H   0  0  0  0  0  0  0  0  0  0  0  0
  -10.6324  -16.6596   34.3532 H   0  0  0  0  0  0  0  0  0  0  0  0
   -8.2832  -17.5069   33.9126 H   0  0  0  0  0  0  0  0  0  0  0  0
   -7.0178  -16.1105   32.2899 H   0  0  0  0  0  0  0  0  0  0  0  0
  -11.1687  -11.4774   38.3381 H   0  0  0  0  0  0  0  0  0  0  0  0
   -9.4525  -10.6880   31.8845 H   0  0  0  0  0  0  0  0  0  0  0  0
   -8.8694   -8.7617   30.1929 H   0  0  0  0  0  0  0  0  0  0  0  0
   -8.2772   -7.1088   32.2243 H   0  0  0  0  0  0  0  0  0  0  0  0
  1  2  1  0
  2  3  1  0
  3  4  1  0
  4  5  2  0
  5  6  1  0
  6  7  2  0
  7  8  1  0
  8  9  2  0
  2 10  1  0
 10 11  2  0
 10 12  1  0
  2 13  1  0
 13 14  1  0
 14 15  2  0
 15 16  1  0
 16 17  2  0
  9  4  1  0
 17 13  1  0
  1 18  1  0
  1 19  1  0
  1 20  1  0
  3 21  1  0
  3 22  1  0
  5 23  1  0
  6 24  1  0
  7 25  1  0
  8 26  1  0
 12 27  1  0
 14 28  1  0
 15 29  1  0
 16 30  1  0
M  END
>  <Energy>  (1205) 
712.4767941333937

>  <compound_id>  (1205) 
19099

>  <target_id>  (1205) 
1

>  <reference_id>  (1205) 
7

>  <inspiration_ids>  (1205) 
[7, 82]

>  <energy_score>  (1205) 
680.8627794598515

>  <distance_score>  (1205) 
9.51673088991202

>  <path>  (1205) 
/opt/xchem-fragalysis-2/maxwin/BulkDock/SCRATCH/511023/C19099-P7/C19099-P7.minimised.mol

>  <scratch_subdir>  (1205) 
/opt/xchem-fragalysis-2/maxwin/BulkDock/SCRATCH/511023/C19099-P7

>  <fragmenstein_runtime>  (1205) 
7.983482599258423

>  <fragmenstein_outcome>  (1205) 
too moved

>  <fragmenstein_mode>  (1205) 
expansion

>  <fragmenstein_error>  (1205) 


$$$$
C19099-P82
     RDKit          3D

 30 31  0  0  0  0  0  0  0  0999 V2000
  -16.4878  -16.0079   34.8391 C   0  0  0  0  0  0  0  0  0  0  0  0
  -15.2237  -15.7914   35.7007 C   0  0  0  0  0  0  0  0  0  0  0  0
  -13.9722  -16.5545   35.1325 C   0  0  0  0  0  0  0  0  0  0  0  0
  -14.0244  -18.0703   34.9037 C   0  0  0  0  0  0  0  0  0  0  0  0
  -12.8471  -18.8157   34.8947 C   0  0  0  0  0  0  0  0  0  0  0  0
  -12.8690  -20.1274   34.4102 C   0  0  0  0  0  0  0  0  0  0  0  0
  -14.0594  -20.6892   33.9616 C   0  0  0  0  0  0  0  0  0  0  0  0
  -15.1922  -19.9107   34.0450 C   0  0  0  0  0  0  0  0  0  0  0  0
  -15.1857  -18.6176   34.4690 N   0  0  0  0  0  0  0  0  0  0  0  0
  -15.5303  -16.2939   37.1078 C   0  0  0  0  0  0  0  0  0  0  0  0
  -16.6184  -16.2703   37.6673 O   0  0  0  0  0  0  0  0  0  0  0  0
  -14.4709  -16.7638   37.8017 O   0  0  0  0  0  0  0  0  0  0  0  0
  -14.9902  -14.3080   35.7170 N   0  0  0  0  0  0  0  0  0  0  0  0
  -15.4830  -13.3761   36.6078 C   0  0  0  0  0  0  0  0  0  0  0  0
  -15.2564  -12.1323   36.0668 C   0  0  0  0  0  0  0  0  0  0  0  0
  -14.6530  -12.4029   34.8337 C   0  0  0  0  0  0  0  0  0  0  0  0
  -14.4550  -13.7081   34.6146 N   0  0  0  0  0  0  0  0  0  0  0  0
  -16.9294  -16.9982   34.9840 H   0  0  0  0  0  0  0  0  0  0  0  0
  -16.2772  -15.8734   33.7739 H   0  0  0  0  0  0  0  0  0  0  0  0
  -17.2766  -15.2909   35.1016 H   0  0  0  0  0  0  0  0  0  0  0  0
  -13.6990  -16.1284   34.1595 H   0  0  0  0  0  0  0  0  0  0  0  0
  -13.1157  -16.3463   35.7866 H   0  0  0  0  0  0  0  0  0  0  0  0
  -11.9016  -18.3639   35.1791 H   0  0  0  0  0  0  0  0  0  0  0  0
  -11.9566  -20.7084   34.3581 H   0  0  0  0  0  0  0  0  0  0  0  0
  -14.1000  -21.7057   33.5835 H   0  0  0  0  0  0  0  0  0  0  0  0
  -16.1614  -20.2954   33.7381 H   0  0  0  0  0  0  0  0  0  0  0  0
  -14.8759  -17.0757   38.6405 H   0  0  0  0  0  0  0  0  0  0  0  0
  -15.9663  -13.6656   37.5303 H   0  0  0  0  0  0  0  0  0  0  0  0
  -15.5156  -11.1765   36.4954 H   0  0  0  0  0  0  0  0  0  0  0  0
  -14.3585  -11.7114   34.0627 H   0  0  0  0  0  0  0  0  0  0  0  0
  1  2  1  0
  2  3  1  0
  3  4  1  0
  4  5  2  0
  5  6  1  0
  6  7  2  0
  7  8  1  0
  8  9  2  0
  2 10  1  0
 10 11  2  0
 10 12  1  0
  2 13  1  0
 13 14  1  0
 14 15  2  0
 15 16  1  0
 16 17  2  0
  9  4  1  0
 17 13  1  0
  1 18  1  0
  1 19  1  0
  1 20  1  0
  3 21  1  0
  3 22  1  0
  5 23  1  0
  6 24  1  0
  7 25  1  0
  8 26  1  0
 12 27  1  0
 14 28  1  0
 15 29  1  0
 16 30  1  0
M  END
>  <Energy>  (1206) 
10.643481946223472

>  <compound_id>  (1206) 
19099

>  <target_id>  (1206) 
1

>  <reference_id>  (1206) 
82

>  <inspiration_ids>  (1206) 
[7, 82]

>  <energy_score>  (1206) 
-20.970532727303635

>  <distance_score>  (1206) 
10.433887044603521

>  <path>  (1206) 
/opt/xchem-fragalysis-2/maxwin/BulkDock/SCRATCH/511023/C19099-P82/C19099-P82.minimised.mol

>  <scratch_subdir>  (1206) 
/opt/xchem-fragalysis-2/maxwin/BulkDock/SCRATCH/511023/C19099-P82

>  <fragmenstein_runtime>  (1206) 
8.921924352645874

>  <fragmenstein_outcome>  (1206) 
too moved

>  <fragmenstein_mode>  (1206) 
expansion

>  <fragmenstein_error>  (1206) 


$$$$
C18745-P7
     RDKit          2D

  0  0  0  0  0  0  0  0  0  0999 V2000
M  END
>  <compound_id>  (1207) 
18745

>  <target_id>  (1207) 
1

>  <reference_id>  (1207) 
7

>  <inspiration_ids>  (1207) 
[7, 82]

>  <energy_score>  (1207) 
nan

>  <distance_score>  (1207) 
nan

>  <path>  (1207) 
/opt/xchem-fragalysis-2/maxwin/BulkDock/SCRATCH/511023/C18745-P7/C18745-P7.minimised.mol

>  <scratch_subdir>  (1207) 
/opt/xchem-fragalysis-2/maxwin/BulkDock/SCRATCH/511023/C18745-P7

>  <fragmenstein_runtime>  (1207) 
0.18878722190856934

>  <fragmenstein_outcome>  (1207) 
too distant

>  <fragmenstein_mode>  (1207) 
expansion

>  <fragmenstein_error>  (1207) 
DistanceError: hit1

$$$$
C19100-P7
     RDKit          3D

 41 42  0  0  0  0  0  0  0  0999 V2000
  -17.5116  -12.1098   35.3123 C   0  0  0  0  0  0  0  0  0  0  0  0
  -16.0377  -12.0001   34.9397 C   0  0  0  0  0  0  0  0  0  0  0  0
  -15.1590  -11.1198   36.3687 S   0  0  0  0  0  0  0  0  0  0  0  0
  -15.6147   -9.3808   36.2543 C   0  0  0  0  0  0  0  0  0  0  0  0
  -15.1780   -8.5302   37.2792 C   0  0  0  0  0  0  0  0  0  0  0  0
  -15.5464   -7.1839   37.2694 C   0  0  0  0  0  0  0  0  0  0  0  0
  -16.3263   -6.7149   36.2253 C   0  0  0  0  0  0  0  0  0  0  0  0
  -16.7027   -7.6202   35.2417 C   0  0  0  0  0  0  0  0  0  0  0  0
  -16.3794   -8.9406   35.2324 N   0  0  0  0  0  0  0  0  0  0  0  0
  -15.2416  -13.3662   34.7018 C   0  0  0  0  0  0  0  0  0  0  0  0
  -14.0501  -13.2508   34.5768 O   0  0  0  0  0  0  0  0  0  0  0  0
  -16.0740  -14.5499   34.7684 N   0  0  0  0  0  0  0  0  0  0  0  0
  -15.7451  -15.8818   34.8002 C   0  0  0  0  0  0  0  0  0  0  0  0
  -14.4803  -16.4985   34.9287 C   0  0  0  0  0  0  0  0  0  0  0  0
  -14.7325  -17.8478   35.0811 C   0  0  0  0  0  0  0  0  0  0  0  0
  -16.0896  -17.9936   34.9654 N   0  0  0  0  0  0  0  0  0  0  0  0
  -16.8808  -19.2387   34.9741 C   0  0  0  0  0  0  0  0  0  0  0  0
  -18.2765  -19.0247   34.3409 C   0  0  0  0  0  0  0  0  0  0  0  0
  -16.1677  -20.3393   34.1635 C   0  0  0  0  0  0  0  0  0  0  0  0
  -17.0887  -19.6943   36.4160 C   0  0  0  0  0  0  0  0  0  0  0  0
  -16.6886  -19.1611   37.4389 O   0  0  0  0  0  0  0  0  0  0  0  0
  -17.7994  -20.8417   36.5196 O   0  0  0  0  0  0  0  0  0  0  0  0
  -16.7077  -16.8085   34.7377 N   0  0  0  0  0  0  0  0  0  0  0  0
  -17.9606  -11.1324   35.5149 H   0  0  0  0  0  0  0  0  0  0  0  0
  -17.6639  -12.7352   36.1996 H   0  0  0  0  0  0  0  0  0  0  0  0
  -18.0864  -12.5520   34.4913 H   0  0  0  0  0  0  0  0  0  0  0  0
  -15.9047  -11.4033   34.0320 H   0  0  0  0  0  0  0  0  0  0  0  0
  -14.5650   -8.9145   38.0895 H   0  0  0  0  0  0  0  0  0  0  0  0
  -15.2228   -6.5189   38.0640 H   0  0  0  0  0  0  0  0  0  0  0  0
  -16.6227   -5.6741   36.1671 H   0  0  0  0  0  0  0  0  0  0  0  0
  -17.3026   -7.2928   34.3972 H   0  0  0  0  0  0  0  0  0  0  0  0
  -17.0376  -14.2723   34.7918 H   0  0  0  0  0  0  0  0  0  0  0  0
  -13.5127  -16.0156   34.9702 H   0  0  0  0  0  0  0  0  0  0  0  0
  -14.0614  -18.6768   35.2590 H   0  0  0  0  0  0  0  0  0  0  0  0
  -18.8846  -18.3292   34.9319 H   0  0  0  0  0  0  0  0  0  0  0  0
  -18.1967  -18.6260   33.3225 H   0  0  0  0  0  0  0  0  0  0  0  0
  -18.8397  -19.9636   34.2814 H   0  0  0  0  0  0  0  0  0  0  0  0
  -16.7604  -21.2607   34.1280 H   0  0  0  0  0  0  0  0  0  0  0  0
  -15.1979  -20.6073   34.5925 H   0  0  0  0  0  0  0  0  0  0  0  0
  -15.9936  -20.0192   33.1298 H   0  0  0  0  0  0  0  0  0  0  0  0
  -17.8533  -21.0063   37.4856 H   0  0  0  0  0  0  0  0  0  0  0  0
  1  2  1  0
  2  3  1  0
  3  4  1  0
  4  5  2  0
  5  6  1  0
  6  7  2  0
  7  8  1  0
  8  9  2  0
  2 10  1  0
 10 11  2  0
 10 12  1  0
 12 13  1  0
 13 14  1  0
 14 15  2  0
 15 16  1  0
 16 17  1  0
 17 18  1  0
 17 19  1  0
 17 20  1  0
 20 21  2  0
 20 22  1  0
 16 23  1  0
  9  4  1  0
 23 13  2  0
  1 24  1  0
  1 25  1  0
  1 26  1  0
  2 27  1  0
  5 28  1  0
  6 29  1  0
  7 30  1  0
  8 31  1  0
 12 32  1  0
 14 33  1  0
 15 34  1  0
 18 35  1  0
 18 36  1  0
 18 37  1  0
 19 38  1  0
 19 39  1  0
 19 40  1  0
 22 41  1  0
M  END
>  <Energy>  (1208) 
-5.6703461996337126

>  <compound_id>  (1208) 
19100

>  <target_id>  (1208) 
1

>  <reference_id>  (1208) 
7

>  <inspiration_ids>  (1208) 
[7, 82]

>  <energy_score>  (1208) 
-54.87532024226567

>  <distance_score>  (1208) 
10.180079596621924

>  <path>  (1208) 
/opt/xchem-fragalysis-2/maxwin/BulkDock/SCRATCH/511023/C19100-P7/C19100-P7.minimised.mol

>  <scratch_subdir>  (1208) 
/opt/xchem-fragalysis-2/maxwin/BulkDock/SCRATCH/511023/C19100-P7

>  <fragmenstein_runtime>  (1208) 
20.88782835006714

>  <fragmenstein_outcome>  (1208) 
too moved

>  <fragmenstein_mode>  (1208) 
expansion

>  <fragmenstein_error>  (1208) 


$$$$
C19100-P82
     RDKit          3D

 41 42  0  0  0  0  0  0  0  0999 V2000
  -16.7386  -15.7515   34.8040 C   0  0  0  0  0  0  0  0  0  0  0  0
  -15.3897  -15.9696   35.4853 C   0  0  0  0  0  0  0  0  0  0  0  0
  -15.5034  -15.5139   37.2839 S   0  0  0  0  0  0  0  0  0  0  0  0
  -15.4396  -13.6966   37.2715 C   0  0  0  0  0  0  0  0  0  0  0  0
  -15.3718  -13.0076   38.4886 C   0  0  0  0  0  0  0  0  0  0  0  0
  -15.2406  -11.6169   38.4938 C   0  0  0  0  0  0  0  0  0  0  0  0
  -15.1811  -10.9518   37.2832 C   0  0  0  0  0  0  0  0  0  0  0  0
  -15.2826  -11.7087   36.1242 C   0  0  0  0  0  0  0  0  0  0  0  0
  -15.4338  -13.0536   36.0910 N   0  0  0  0  0  0  0  0  0  0  0  0
  -14.7196  -17.4097   35.3060 C   0  0  0  0  0  0  0  0  0  0  0  0
  -13.5328  -17.4694   35.4943 O   0  0  0  0  0  0  0  0  0  0  0  0
  -15.6616  -18.4235   34.8406 N   0  0  0  0  0  0  0  0  0  0  0  0
  -15.4553  -19.7200   34.3929 C   0  0  0  0  0  0  0  0  0  0  0  0
  -16.5069  -20.6284   34.1228 C   0  0  0  0  0  0  0  0  0  0  0  0
  -15.9177  -21.7744   33.6432 C   0  0  0  0  0  0  0  0  0  0  0  0
  -14.5661  -21.5405   33.6160 N   0  0  0  0  0  0  0  0  0  0  0  0
  -13.5324  -22.3987   32.9834 C   0  0  0  0  0  0  0  0  0  0  0  0
  -13.9107  -22.6465   31.5340 C   0  0  0  0  0  0  0  0  0  0  0  0
  -12.1494  -21.7392   33.0361 C   0  0  0  0  0  0  0  0  0  0  0  0
  -13.3396  -23.7790   33.5945 C   0  0  0  0  0  0  0  0  0  0  0  0
  -12.3228  -24.4558   33.4762 O   0  0  0  0  0  0  0  0  0  0  0  0
  -14.3591  -24.2792   34.3120 O   0  0  0  0  0  0  0  0  0  0  0  0
  -14.2824  -20.2720   34.0592 N   0  0  0  0  0  0  0  0  0  0  0  0
  -17.5503  -16.2823   35.3141 H   0  0  0  0  0  0  0  0  0  0  0  0
  -17.0108  -14.6919   34.7734 H   0  0  0  0  0  0  0  0  0  0  0  0
  -16.7123  -16.1002   33.7668 H   0  0  0  0  0  0  0  0  0  0  0  0
  -14.6694  -15.2906   35.0100 H   0  0  0  0  0  0  0  0  0  0  0  0
  -15.3848  -13.5514   39.4274 H   0  0  0  0  0  0  0  0  0  0  0  0
  -15.1552  -11.0773   39.4312 H   0  0  0  0  0  0  0  0  0  0  0  0
  -15.0396   -9.8837   37.2600 H   0  0  0  0  0  0  0  0  0  0  0  0
  -15.2371  -11.2626   35.1392 H   0  0  0  0  0  0  0  0  0  0  0  0
  -16.5945  -18.0491   34.8797 H   0  0  0  0  0  0  0  0  0  0  0  0
  -17.5672  -20.4763   34.2637 H   0  0  0  0  0  0  0  0  0  0  0  0
  -16.3359  -22.7173   33.3127 H   0  0  0  0  0  0  0  0  0  0  0  0
  -14.8574  -23.1832   31.4800 H   0  0  0  0  0  0  0  0  0  0  0  0
  -14.0638  -21.7179   30.9946 H   0  0  0  0  0  0  0  0  0  0  0  0
  -13.1501  -23.2351   31.0089 H   0  0  0  0  0  0  0  0  0  0  0  0
  -11.3639  -22.4040   32.6602 H   0  0  0  0  0  0  0  0  0  0  0  0
  -11.9108  -21.4629   34.0650 H   0  0  0  0  0  0  0  0  0  0  0  0
  -12.0774  -20.8409   32.4343 H   0  0  0  0  0  0  0  0  0  0  0  0
  -13.8872  -24.9547   34.8714 H   0  0  0  0  0  0  0  0  0  0  0  0
  1  2  1  0
  2  3  1  0
  3  4  1  0
  4  5  2  0
  5  6  1  0
  6  7  2  0
  7  8  1  0
  8  9  2  0
  2 10  1  0
 10 11  2  0
 10 12  1  0
 12 13  1  0
 13 14  1  0
 14 15  2  0
 15 16  1  0
 16 17  1  0
 17 18  1  0
 17 19  1  0
 17 20  1  0
 20 21  2  0
 20 22  1  0
 16 23  1  0
  9  4  1  0
 23 13  2  0
  1 24  1  0
  1 25  1  0
  1 26  1  0
  2 27  1  0
  5 28  1  0
  6 29  1  0
  7 30  1  0
  8 31  1  0
 12 32  1  0
 14 33  1  0
 15 34  1  0
 18 35  1  0
 18 36  1  0
 18 37  1  0
 19 38  1  0
 19 39  1  0
 19 40  1  0
 22 41  1  0
M  END
>  <Energy>  (1209) 
7.9295797721655177

>  <compound_id>  (1209) 
19100

>  <target_id>  (1209) 
1

>  <reference_id>  (1209) 
82

>  <inspiration_ids>  (1209) 
[7, 82]

>  <energy_score>  (1209) 
-41.27539427046926

>  <distance_score>  (1209) 
9.972963915281774

>  <path>  (1209) 
/opt/xchem-fragalysis-2/maxwin/BulkDock/SCRATCH/511023/C19100-P82/C19100-P82.minimised.mol

>  <scratch_subdir>  (1209) 
/opt/xchem-fragalysis-2/maxwin/BulkDock/SCRATCH/511023/C19100-P82

>  <fragmenstein_runtime>  (1209) 
28.267927646636963

>  <fragmenstein_outcome>  (1209) 
too moved

>  <fragmenstein_mode>  (1209) 
expansion

>  <fragmenstein_error>  (1209) 


$$$$
C19101-P7
     RDKit          3D

 40 41  0  0  0  0  0  0  0  0999 V2000
  -17.2114  -11.5275   36.6052 C   0  0  0  0  0  0  0  0  0  0  0  0
  -15.7463  -11.2564   36.1873 C   0  0  0  0  0  0  0  0  0  0  0  0
  -15.3482  -12.1489   34.9177 C   0  0  0  0  0  0  0  0  0  0  0  0
  -15.1336  -13.6991   34.9745 C   0  0  0  0  0  0  0  0  0  0  0  0
  -15.9843  -14.5936   35.6243 C   0  0  0  0  0  0  0  0  0  0  0  0
  -15.6652  -15.9693   35.6854 C   0  0  0  0  0  0  0  0  0  0  0  0
  -14.5696  -16.4718   34.9918 C   0  0  0  0  0  0  0  0  0  0  0  0
  -13.8226  -15.5600   34.2784 C   0  0  0  0  0  0  0  0  0  0  0  0
  -14.0248  -14.2057   34.3457 N   0  0  0  0  0  0  0  0  0  0  0  0
  -14.8263  -11.6577   37.3232 C   0  0  0  0  0  0  0  0  0  0  0  0
  -15.1071  -12.4752   38.1926 O   0  0  0  0  0  0  0  0  0  0  0  0
  -13.5903  -11.1199   37.2762 O   0  0  0  0  0  0  0  0  0  0  0  0
  -15.6794   -9.7683   35.9858 N   0  0  0  0  0  0  0  0  0  0  0  0
  -15.4726   -8.7937   36.9592 C   0  0  0  0  0  0  0  0  0  0  0  0
  -15.8769   -7.5771   36.4437 C   0  0  0  0  0  0  0  0  0  0  0  0
  -15.8433   -6.2165   37.0779 C   0  0  0  0  0  0  0  0  0  0  0  0
  -17.1873   -5.8336   37.6911 C   0  0  0  0  0  0  0  0  0  0  0  0
  -17.1327   -4.4500   38.3214 C   0  0  0  0  0  0  0  0  0  0  0  0
  -18.4095   -4.1385   38.8608 O   0  0  0  0  0  0  0  0  0  0  0  0
  -16.3218   -7.9175   35.1465 C   0  0  0  0  0  0  0  0  0  0  0  0
  -16.2077   -9.2200   34.8659 N   0  0  0  0  0  0  0  0  0  0  0  0
  -17.5490  -10.8132   37.3672 H   0  0  0  0  0  0  0  0  0  0  0  0
  -17.8908  -11.4349   35.7502 H   0  0  0  0  0  0  0  0  0  0  0  0
  -17.3572  -12.5133   37.0491 H   0  0  0  0  0  0  0  0  0  0  0  0
  -16.0951  -11.9818   34.1299 H   0  0  0  0  0  0  0  0  0  0  0  0
  -14.4099  -11.7325   34.5239 H   0  0  0  0  0  0  0  0  0  0  0  0
  -16.8891  -14.2619   36.1156 H   0  0  0  0  0  0  0  0  0  0  0  0
  -16.3117  -16.6429   36.2439 H   0  0  0  0  0  0  0  0  0  0  0  0
  -14.3213  -17.5259   34.9997 H   0  0  0  0  0  0  0  0  0  0  0  0
  -12.9766  -15.8583   33.6710 H   0  0  0  0  0  0  0  0  0  0  0  0
  -13.0443  -11.5774   37.9683 H   0  0  0  0  0  0  0  0  0  0  0  0
  -15.0830   -9.0503   37.9345 H   0  0  0  0  0  0  0  0  0  0  0  0
  -15.5615   -5.4713   36.3249 H   0  0  0  0  0  0  0  0  0  0  0  0
  -15.0662   -6.1984   37.8514 H   0  0  0  0  0  0  0  0  0  0  0  0
  -17.9779   -5.8560   36.9298 H   0  0  0  0  0  0  0  0  0  0  0  0
  -17.4888   -6.5695   38.4479 H   0  0  0  0  0  0  0  0  0  0  0  0
  -16.3959   -4.4176   39.1303 H   0  0  0  0  0  0  0  0  0  0  0  0
  -16.8760   -3.6907   37.5762 H   0  0  0  0  0  0  0  0  0  0  0  0
  -18.3524   -3.2416   39.2326 H   0  0  0  0  0  0  0  0  0  0  0  0
  -16.7206   -7.2598   34.3848 H   0  0  0  0  0  0  0  0  0  0  0  0
  1  2  1  0
  2  3  1  0
  3  4  1  0
  4  5  2  0
  5  6  1  0
  6  7  2  0
  7  8  1  0
  8  9  2  0
  2 10  1  0
 10 11  2  0
 10 12  1  0
  2 13  1  0
 13 14  1  0
 14 15  2  0
 15 16  1  0
 16 17  1  0
 17 18  1  0
 18 19  1  0
 15 20  1  0
 20 21  2  0
  9  4  1  0
 21 13  1  0
  1 22  1  0
  1 23  1  0
  1 24  1  0
  3 25  1  0
  3 26  1  0
  5 27  1  0
  6 28  1  0
  7 29  1  0
  8 30  1  0
 12 31  1  0
 14 32  1  0
 16 33  1  0
 16 34  1  0
 17 35  1  0
 17 36  1  0
 18 37  1  0
 18 38  1  0
 19 39  1  0
 20 40  1  0
M  END
>  <Energy>  (1210) 
20.794005604508161

>  <compound_id>  (1210) 
19101

>  <target_id>  (1210) 
1

>  <reference_id>  (1210) 
7

>  <inspiration_ids>  (1210) 
[7, 82]

>  <energy_score>  (1210) 
-24.90339511124148

>  <distance_score>  (1210) 
9.390638201308862

>  <path>  (1210) 
/opt/xchem-fragalysis-2/maxwin/BulkDock/SCRATCH/511023/C19101-P7/C19101-P7.minimised.mol

>  <scratch_subdir>  (1210) 
/opt/xchem-fragalysis-2/maxwin/BulkDock/SCRATCH/511023/C19101-P7

>  <fragmenstein_runtime>  (1210) 
11.66171932220459

>  <fragmenstein_outcome>  (1210) 
too moved

>  <fragmenstein_mode>  (1210) 
expansion

>  <fragmenstein_error>  (1210) 


$$$$
C19101-P82
     RDKit          3D

 40 41  0  0  0  0  0  0  0  0999 V2000
  -15.0745  -12.3583   39.1266 C   0  0  0  0  0  0  0  0  0  0  0  0
  -15.8534  -11.7755   37.9213 C   0  0  0  0  0  0  0  0  0  0  0  0
  -15.3631  -12.3037   36.5172 C   0  0  0  0  0  0  0  0  0  0  0  0
  -15.0518  -13.8074   36.2458 C   0  0  0  0  0  0  0  0  0  0  0  0
  -14.3957  -14.1596   35.0620 C   0  0  0  0  0  0  0  0  0  0  0  0
  -13.9797  -15.4805   34.8405 C   0  0  0  0  0  0  0  0  0  0  0  0
  -14.2866  -16.4565   35.7722 C   0  0  0  0  0  0  0  0  0  0  0  0
  -15.0117  -16.0576   36.8812 C   0  0  0  0  0  0  0  0  0  0  0  0
  -15.4071  -14.7701   37.1398 N   0  0  0  0  0  0  0  0  0  0  0  0
  -17.3168  -12.2199   38.1266 C   0  0  0  0  0  0  0  0  0  0  0  0
  -18.2642  -11.4797   38.3600 O   0  0  0  0  0  0  0  0  0  0  0  0
  -17.5392  -13.5586   38.0631 O   0  0  0  0  0  0  0  0  0  0  0  0
  -15.7258  -10.2564   38.0056 N   0  0  0  0  0  0  0  0  0  0  0  0
  -16.6306   -9.2592   37.6743 C   0  0  0  0  0  0  0  0  0  0  0  0
  -16.1939   -8.0677   38.2411 C   0  0  0  0  0  0  0  0  0  0  0  0
  -16.8947   -6.7375   38.2855 C   0  0  0  0  0  0  0  0  0  0  0  0
  -16.0072   -5.5334   38.0009 C   0  0  0  0  0  0  0  0  0  0  0  0
  -16.7879   -4.2271   38.0666 C   0  0  0  0  0  0  0  0  0  0  0  0
  -15.8962   -3.1265   37.9525 O   0  0  0  0  0  0  0  0  0  0  0  0
  -14.9747   -8.4342   38.8429 C   0  0  0  0  0  0  0  0  0  0  0  0
  -14.6221   -9.6945   38.5801 N   0  0  0  0  0  0  0  0  0  0  0  0
  -15.1624  -13.4432   39.2182 H   0  0  0  0  0  0  0  0  0  0  0  0
  -14.0096  -12.1163   39.0878 H   0  0  0  0  0  0  0  0  0  0  0  0
  -15.4618  -11.9477   40.0688 H   0  0  0  0  0  0  0  0  0  0  0  0
  -14.4570  -11.7449   36.2513 H   0  0  0  0  0  0  0  0  0  0  0  0
  -16.1158  -12.0171   35.7687 H   0  0  0  0  0  0  0  0  0  0  0  0
  -14.1830  -13.3952   34.3181 H   0  0  0  0  0  0  0  0  0  0  0  0
  -13.4299  -15.7291   33.9343 H   0  0  0  0  0  0  0  0  0  0  0  0
  -13.9854  -17.4876   35.6338 H   0  0  0  0  0  0  0  0  0  0  0  0
  -15.3044  -16.7824   37.6376 H   0  0  0  0  0  0  0  0  0  0  0  0
  -16.7501  -14.1179   37.8493 H   0  0  0  0  0  0  0  0  0  0  0  0
  -17.5429   -9.4932   37.1421 H   0  0  0  0  0  0  0  0  0  0  0  0
  -17.7216   -6.7522   37.5638 H   0  0  0  0  0  0  0  0  0  0  0  0
  -17.3494   -6.6310   39.2788 H   0  0  0  0  0  0  0  0  0  0  0  0
  -15.1773   -5.4883   38.7165 H   0  0  0  0  0  0  0  0  0  0  0  0
  -15.5549   -5.6306   37.0088 H   0  0  0  0  0  0  0  0  0  0  0  0
  -17.5342   -4.1636   37.2681 H   0  0  0  0  0  0  0  0  0  0  0  0
  -17.3052   -4.1339   39.0266 H   0  0  0  0  0  0  0  0  0  0  0  0
  -15.5726   -3.0782   37.0345 H   0  0  0  0  0  0  0  0  0  0  0  0
  -14.3044   -7.8243   39.4366 H   0  0  0  0  0  0  0  0  0  0  0  0
  1  2  1  0
  2  3  1  0
  3  4  1  0
  4  5  2  0
  5  6  1  0
  6  7  2  0
  7  8  1  0
  8  9  2  0
  2 10  1  0
 10 11  2  0
 10 12  1  0
  2 13  1  0
 13 14  1  0
 14 15  2  0
 15 16  1  0
 16 17  1  0
 17 18  1  0
 18 19  1  0
 15 20  1  0
 20 21  2  0
  9  4  1  0
 21 13  1  0
  1 22  1  0
  1 23  1  0
  1 24  1  0
  3 25  1  0
  3 26  1  0
  5 27  1  0
  6 28  1  0
  7 29  1  0
  8 30  1  0
 12 31  1  0
 14 32  1  0
 16 33  1  0
 16 34  1  0
 17 35  1  0
 17 36  1  0
 18 37  1  0
 18 38  1  0
 19 39  1  0
 20 40  1  0
M  END
>  <Energy>  (1211) 
14.758492130429719

>  <compound_id>  (1211) 
19101

>  <target_id>  (1211) 
1

>  <reference_id>  (1211) 
82

>  <inspiration_ids>  (1211) 
[7, 82]

>  <energy_score>  (1211) 
-30.938908585316767

>  <distance_score>  (1211) 
9.948422847221147

>  <path>  (1211) 
/opt/xchem-fragalysis-2/maxwin/BulkDock/SCRATCH/511023/C19101-P82/C19101-P82.minimised.mol

>  <scratch_subdir>  (1211) 
/opt/xchem-fragalysis-2/maxwin/BulkDock/SCRATCH/511023/C19101-P82

>  <fragmenstein_runtime>  (1211) 
16.242432355880737

>  <fragmenstein_outcome>  (1211) 
too moved

>  <fragmenstein_mode>  (1211) 
expansion

>  <fragmenstein_error>  (1211) 


$$$$
C19102-P7
     RDKit          2D

  0  0  0  0  0  0  0  0  0  0999 V2000
M  END
>  <compound_id>  (1212) 
19102

>  <target_id>  (1212) 
1

>  <reference_id>  (1212) 
7

>  <inspiration_ids>  (1212) 
[7, 82]

>  <energy_score>  (1212) 
nan

>  <distance_score>  (1212) 
nan

>  <path>  (1212) 
/opt/xchem-fragalysis-2/maxwin/BulkDock/SCRATCH/511023/C19102-P7/C19102-P7.minimised.mol

>  <scratch_subdir>  (1212) 
/opt/xchem-fragalysis-2/maxwin/BulkDock/SCRATCH/511023/C19102-P7

>  <fragmenstein_runtime>  (1212) 
0.22702670097351074

>  <fragmenstein_outcome>  (1212) 
too distant

>  <fragmenstein_mode>  (1212) 
expansion

>  <fragmenstein_error>  (1212) 
DistanceError: hit1

$$$$
C15161-P7
     RDKit          2D

  0  0  0  0  0  0  0  0  0  0999 V2000
M  END
>  <compound_id>  (1213) 
15161

>  <target_id>  (1213) 
1

>  <reference_id>  (1213) 
7

>  <inspiration_ids>  (1213) 
[7, 82]

>  <energy_score>  (1213) 
nan

>  <distance_score>  (1213) 
nan

>  <path>  (1213) 
/opt/xchem-fragalysis-2/maxwin/BulkDock/SCRATCH/511023/C15161-P7/C15161-P7.minimised.mol

>  <scratch_subdir>  (1213) 
/opt/xchem-fragalysis-2/maxwin/BulkDock/SCRATCH/511023/C15161-P7

>  <fragmenstein_runtime>  (1213) 
0.25659799575805664

>  <fragmenstein_outcome>  (1213) 
too distant

>  <fragmenstein_mode>  (1213) 
expansion

>  <fragmenstein_error>  (1213) 
DistanceError: hit0

$$$$
C18749-P7
     RDKit          2D

  0  0  0  0  0  0  0  0  0  0999 V2000
M  END
>  <compound_id>  (1214) 
18749

>  <target_id>  (1214) 
1

>  <reference_id>  (1214) 
7

>  <inspiration_ids>  (1214) 
[7, 82]

>  <energy_score>  (1214) 
nan

>  <distance_score>  (1214) 
nan

>  <path>  (1214) 
/opt/xchem-fragalysis-2/maxwin/BulkDock/SCRATCH/511023/C18749-P7/C18749-P7.minimised.mol

>  <scratch_subdir>  (1214) 
/opt/xchem-fragalysis-2/maxwin/BulkDock/SCRATCH/511023/C18749-P7

>  <fragmenstein_runtime>  (1214) 
0.25948119163513184

>  <fragmenstein_outcome>  (1214) 
too distant

>  <fragmenstein_mode>  (1214) 
expansion

>  <fragmenstein_error>  (1214) 
DistanceError: hit1

$$$$
C18755-P7
     RDKit          3D

 39 41  0  0  0  0  0  0  0  0999 V2000
  -15.7159  -11.9996   37.7475 C   0  0  0  0  0  0  0  0  0  0  0  0
  -15.6154  -11.5163   36.2823 C   0  0  0  0  0  0  0  0  0  0  0  0
  -16.6594  -12.3488   35.4173 C   0  0  0  0  0  0  0  0  0  0  0  0
  -16.4715  -13.8875   35.1893 C   0  0  0  0  0  0  0  0  0  0  0  0
  -17.1642  -14.5052   34.1422 C   0  0  0  0  0  0  0  0  0  0  0  0
  -17.0994  -15.8953   33.9673 C   0  0  0  0  0  0  0  0  0  0  0  0
  -16.3460  -16.6636   34.8392 C   0  0  0  0  0  0  0  0  0  0  0  0
  -15.6822  -15.9954   35.8459 C   0  0  0  0  0  0  0  0  0  0  0  0
  -15.7245  -14.6413   36.0348 N   0  0  0  0  0  0  0  0  0  0  0  0
  -14.2471  -11.7301   35.6261 C   0  0  0  0  0  0  0  0  0  0  0  0
  -14.0818  -12.3425   34.5746 O   0  0  0  0  0  0  0  0  0  0  0  0
  -13.1779  -11.1846   36.2480 O   0  0  0  0  0  0  0  0  0  0  0  0
  -15.8400  -10.0326   36.2907 N   0  0  0  0  0  0  0  0  0  0  0  0
  -15.4542   -9.1304   37.2730 C   0  0  0  0  0  0  0  0  0  0  0  0
  -15.8100   -7.8618   36.8567 C   0  0  0  0  0  0  0  0  0  0  0  0
  -15.5759   -6.6245   37.6005 C   0  0  0  0  0  0  0  0  0  0  0  0
  -15.2308   -6.6422   38.9556 C   0  0  0  0  0  0  0  0  0  0  0  0
  -14.9654   -5.4413   39.5949 C   0  0  0  0  0  0  0  0  0  0  0  0
  -15.0182   -4.2409   38.9849 N   0  0  0  0  0  0  0  0  0  0  0  0
  -15.3785   -4.2376   37.6856 C   0  0  0  0  0  0  0  0  0  0  0  0
  -15.6704   -5.3852   36.9646 C   0  0  0  0  0  0  0  0  0  0  0  0
  -16.3716   -8.1009   35.5811 C   0  0  0  0  0  0  0  0  0  0  0  0
  -16.3933   -9.3966   35.2394 N   0  0  0  0  0  0  0  0  0  0  0  0
  -16.5694  -11.5327   38.2558 H   0  0  0  0  0  0  0  0  0  0  0  0
  -15.8824  -13.0722   37.8449 H   0  0  0  0  0  0  0  0  0  0  0  0
  -14.8169  -11.7671   38.3274 H   0  0  0  0  0  0  0  0  0  0  0  0
  -16.7039  -11.9007   34.4144 H   0  0  0  0  0  0  0  0  0  0  0  0
  -17.6576  -12.2172   35.8566 H   0  0  0  0  0  0  0  0  0  0  0  0
  -17.7779  -13.9123   33.4676 H   0  0  0  0  0  0  0  0  0  0  0  0
  -17.6637  -16.3637   33.1645 H   0  0  0  0  0  0  0  0  0  0  0  0
  -16.3033  -17.7431   34.7599 H   0  0  0  0  0  0  0  0  0  0  0  0
  -15.0908  -16.5432   36.5761 H   0  0  0  0  0  0  0  0  0  0  0  0
  -13.2986  -10.8016   37.1374 H   0  0  0  0  0  0  0  0  0  0  0  0
  -14.9709   -9.4651   38.1791 H   0  0  0  0  0  0  0  0  0  0  0  0
  -15.1579   -7.5621   39.5236 H   0  0  0  0  0  0  0  0  0  0  0  0
  -14.6882   -5.4160   40.6454 H   0  0  0  0  0  0  0  0  0  0  0  0
  -15.4209   -3.2564   37.2197 H   0  0  0  0  0  0  0  0  0  0  0  0
  -15.9366   -5.2971   35.9180 H   0  0  0  0  0  0  0  0  0  0  0  0
  -16.7703   -7.3818   34.8768 H   0  0  0  0  0  0  0  0  0  0  0  0
  1  2  1  0
  2  3  1  0
  3  4  1  0
  4  5  2  0
  5  6  1  0
  6  7  2  0
  7  8  1  0
  8  9  2  0
  2 10  1  0
 10 11  2  0
 10 12  1  0
  2 13  1  0
 13 14  1  0
 14 15  2  0
 15 16  1  0
 16 17  2  0
 17 18  1  0
 18 19  2  0
 19 20  1  0
 20 21  2  0
 15 22  1  0
 22 23  2  0
  9  4  1  0
 23 13  1  0
 21 16  1  0
  1 24  1  0
  1 25  1  0
  1 26  1  0
  3 27  1  0
  3 28  1  0
  5 29  1  0
  6 30  1  0
  7 31  1  0
  8 32  1  0
 12 33  1  0
 14 34  1  0
 17 35  1  0
 18 36  1  0
 20 37  1  0
 21 38  1  0
 22 39  1  0
M  END
>  <Energy>  (1215) 
37.744621790468578

>  <compound_id>  (1215) 
18755

>  <target_id>  (1215) 
1

>  <reference_id>  (1215) 
7

>  <inspiration_ids>  (1215) 
[7, 82]

>  <energy_score>  (1215) 
-13.551826462853114

>  <distance_score>  (1215) 
9.642081796754665

>  <path>  (1215) 
/opt/xchem-fragalysis-2/maxwin/BulkDock/SCRATCH/511023/C18755-P7/C18755-P7.minimised.mol

>  <scratch_subdir>  (1215) 
/opt/xchem-fragalysis-2/maxwin/BulkDock/SCRATCH/511023/C18755-P7

>  <fragmenstein_runtime>  (1215) 
9.192988634109497

>  <fragmenstein_outcome>  (1215) 
too moved

>  <fragmenstein_mode>  (1215) 
expansion

>  <fragmenstein_error>  (1215) 


$$$$
C18755-P82
     RDKit          3D

 39 41  0  0  0  0  0  0  0  0999 V2000
  -16.6098  -12.0739   34.9116 C   0  0  0  0  0  0  0  0  0  0  0  0
  -16.3164  -12.3212   36.4040 C   0  0  0  0  0  0  0  0  0  0  0  0
  -15.0984  -13.3019   36.4926 C   0  0  0  0  0  0  0  0  0  0  0  0
  -15.0090  -14.7248   35.9044 C   0  0  0  0  0  0  0  0  0  0  0  0
  -15.5944  -15.8206   36.5428 C   0  0  0  0  0  0  0  0  0  0  0  0
  -15.2385  -17.1254   36.1683 C   0  0  0  0  0  0  0  0  0  0  0  0
  -14.2779  -17.3226   35.1902 C   0  0  0  0  0  0  0  0  0  0  0  0
  -13.7551  -16.1953   34.5886 C   0  0  0  0  0  0  0  0  0  0  0  0
  -14.1188  -14.9176   34.8883 N   0  0  0  0  0  0  0  0  0  0  0  0
  -17.4984  -12.9630   37.1163 C   0  0  0  0  0  0  0  0  0  0  0  0
  -17.4675  -13.6154   38.1494 O   0  0  0  0  0  0  0  0  0  0  0  0
  -18.6956  -12.7338   36.5326 O   0  0  0  0  0  0  0  0  0  0  0  0
  -16.0419  -11.0097   37.0892 N   0  0  0  0  0  0  0  0  0  0  0  0
  -16.8700   -9.8987   37.1755 C   0  0  0  0  0  0  0  0  0  0  0  0
  -16.2114   -8.9348   37.9258 C   0  0  0  0  0  0  0  0  0  0  0  0
  -16.6726   -7.5775   38.1973 C   0  0  0  0  0  0  0  0  0  0  0  0
  -16.1302   -6.8483   39.2587 C   0  0  0  0  0  0  0  0  0  0  0  0
  -16.5714   -5.5517   39.4684 C   0  0  0  0  0  0  0  0  0  0  0  0
  -17.4976   -4.9426   38.7012 N   0  0  0  0  0  0  0  0  0  0  0  0
  -18.0126   -5.6623   37.6841 C   0  0  0  0  0  0  0  0  0  0  0  0
  -17.6388   -6.9651   37.3955 C   0  0  0  0  0  0  0  0  0  0  0  0
  -15.0060   -9.5742   38.2845 C   0  0  0  0  0  0  0  0  0  0  0  0
  -14.8912  -10.7955   37.7642 N   0  0  0  0  0  0  0  0  0  0  0  0
  -15.7264  -11.6839   34.3946 H   0  0  0  0  0  0  0  0  0  0  0  0
  -16.9096  -13.0003   34.4080 H   0  0  0  0  0  0  0  0  0  0  0  0
  -17.4191  -11.3510   34.7602 H   0  0  0  0  0  0  0  0  0  0  0  0
  -14.2837  -12.7591   35.9984 H   0  0  0  0  0  0  0  0  0  0  0  0
  -14.8323  -13.4157   37.5519 H   0  0  0  0  0  0  0  0  0  0  0  0
  -16.2685  -15.6807   37.3829 H   0  0  0  0  0  0  0  0  0  0  0  0
  -15.6780  -17.9750   36.6849 H   0  0  0  0  0  0  0  0  0  0  0  0
  -13.9381  -18.3145   34.9167 H   0  0  0  0  0  0  0  0  0  0  0  0
  -13.0008  -16.2715   33.8150 H   0  0  0  0  0  0  0  0  0  0  0  0
  -19.3431  -13.1800   37.1211 H   0  0  0  0  0  0  0  0  0  0  0  0
  -17.8362   -9.9018   36.6905 H   0  0  0  0  0  0  0  0  0  0  0  0
  -15.3848   -7.2673   39.9259 H   0  0  0  0  0  0  0  0  0  0  0  0
  -16.1780   -4.9514   40.2844 H   0  0  0  0  0  0  0  0  0  0  0  0
  -18.7569   -5.1467   37.0835 H   0  0  0  0  0  0  0  0  0  0  0  0
  -18.0939   -7.4711   36.5521 H   0  0  0  0  0  0  0  0  0  0  0  0
  -14.1865   -9.1984   38.8839 H   0  0  0  0  0  0  0  0  0  0  0  0
  1  2  1  0
  2  3  1  0
  3  4  1  0
  4  5  2  0
  5  6  1  0
  6  7  2  0
  7  8  1  0
  8  9  2  0
  2 10  1  0
 10 11  2  0
 10 12  1  0
  2 13  1  0
 13 14  1  0
 14 15  2  0
 15 16  1  0
 16 17  2  0
 17 18  1  0
 18 19  2  0
 19 20  1  0
 20 21  2  0
 15 22  1  0
 22 23  2  0
  9  4  1  0
 23 13  1  0
 21 16  1  0
  1 24  1  0
  1 25  1  0
  1 26  1  0
  3 27  1  0
  3 28  1  0
  5 29  1  0
  6 30  1  0
  7 31  1  0
  8 32  1  0
 12 33  1  0
 14 34  1  0
 17 35  1  0
 18 36  1  0
 20 37  1  0
 21 38  1  0
 22 39  1  0
M  END
>  <Energy>  (1216) 
26.735367560384546

>  <compound_id>  (1216) 
18755

>  <target_id>  (1216) 
1

>  <reference_id>  (1216) 
82

>  <inspiration_ids>  (1216) 
[7, 82]

>  <energy_score>  (1216) 
-24.561080692930545

>  <distance_score>  (1216) 
9.873914178387194

>  <path>  (1216) 
/opt/xchem-fragalysis-2/maxwin/BulkDock/SCRATCH/511023/C18755-P82/C18755-P82.minimised.mol

>  <scratch_subdir>  (1216) 
/opt/xchem-fragalysis-2/maxwin/BulkDock/SCRATCH/511023/C18755-P82

>  <fragmenstein_runtime>  (1216) 
8.782167434692383

>  <fragmenstein_outcome>  (1216) 
too moved

>  <fragmenstein_mode>  (1216) 
expansion

>  <fragmenstein_error>  (1216) 


$$$$
C19103-P7
     RDKit          3D

 41 42  0  0  0  0  0  0  0  0999 V2000
  -11.2670  -21.6935   28.2922 C   0  0  0  0  0  0  0  0  0  0  0  0
  -11.9809  -20.6147   29.1613 C   0  0  0  0  0  0  0  0  0  0  0  0
  -12.2685  -18.8663   28.9709 O   0  0  0  0  0  0  0  0  0  0  0  0
  -11.5435  -17.4796   28.7558 C   0  0  0  0  0  0  0  0  0  0  0  0
  -12.2735  -16.2837   28.5365 C   0  0  0  0  0  0  0  0  0  0  0  0
  -11.6505  -15.0554   28.2519 C   0  0  0  0  0  0  0  0  0  0  0  0
  -10.2841  -15.0137   28.1103 C   0  0  0  0  0  0  0  0  0  0  0  0
   -9.6154  -16.1983   28.2723 C   0  0  0  0  0  0  0  0  0  0  0  0
  -10.2088  -17.3925   28.5775 N   0  0  0  0  0  0  0  0  0  0  0  0
  -12.3545  -21.3233   30.5103 C   0  0  0  0  0  0  0  0  0  0  0  0
  -13.4799  -21.6366   30.6541 O   0  0  0  0  0  0  0  0  0  0  0  0
  -11.2968  -21.4402   31.3382 N   0  0  0  0  0  0  0  0  0  0  0  0
  -11.1825  -22.0139   32.5127 C   0  0  0  0  0  0  0  0  0  0  0  0
  -12.2391  -22.1342   33.4225 C   0  0  0  0  0  0  0  0  0  0  0  0
  -12.0139  -23.3610   33.9798 C   0  0  0  0  0  0  0  0  0  0  0  0
  -10.8525  -23.8311   33.4275 N   0  0  0  0  0  0  0  0  0  0  0  0
  -10.0473  -25.0102   33.6849 C   0  0  0  0  0  0  0  0  0  0  0  0
  -10.9576  -26.0908   34.0911 C   0  0  0  0  0  0  0  0  0  0  0  0
   -9.1411  -24.8323   34.8895 C   0  0  0  0  0  0  0  0  0  0  0  0
   -9.3069  -25.4442   32.4171 C   0  0  0  0  0  0  0  0  0  0  0  0
   -8.3727  -26.2161   32.4324 O   0  0  0  0  0  0  0  0  0  0  0  0
   -9.7575  -24.9792   31.2264 O   0  0  0  0  0  0  0  0  0  0  0  0
  -10.2829  -22.9595   32.6175 N   0  0  0  0  0  0  0  0  0  0  0  0
  -11.5960  -21.6954   27.2489 H   0  0  0  0  0  0  0  0  0  0  0  0
  -10.2043  -21.5623   28.3016 H   0  0  0  0  0  0  0  0  0  0  0  0
  -11.4564  -22.7062   28.6689 H   0  0  0  0  0  0  0  0  0  0  0  0
  -12.8624  -20.8221   28.6560 H   0  0  0  0  0  0  0  0  0  0  0  0
  -13.3475  -16.2399   28.4385 H   0  0  0  0  0  0  0  0  0  0  0  0
  -12.2585  -14.1741   28.0754 H   0  0  0  0  0  0  0  0  0  0  0  0
   -9.7486  -14.1191   27.8323 H   0  0  0  0  0  0  0  0  0  0  0  0
   -8.5353  -16.2476   28.1593 H   0  0  0  0  0  0  0  0  0  0  0  0
  -10.5080  -20.9910   30.9170 H   0  0  0  0  0  0  0  0  0  0  0  0
  -13.1484  -21.5561   33.5072 H   0  0  0  0  0  0  0  0  0  0  0  0
  -12.6426  -23.9234   34.6435 H   0  0  0  0  0  0  0  0  0  0  0  0
  -11.1448  -26.8071   33.3123 H   0  0  0  0  0  0  0  0  0  0  0  0
  -10.6129  -26.7982   34.7729 H   0  0  0  0  0  0  0  0  0  0  0  0
  -11.7366  -25.6607   34.6987 H   0  0  0  0  0  0  0  0  0  0  0  0
   -8.6151  -23.8920   34.9941 H   0  0  0  0  0  0  0  0  0  0  0  0
   -9.6619  -24.8767   35.8391 H   0  0  0  0  0  0  0  0  0  0  0  0
   -8.3377  -25.5417   34.8639 H   0  0  0  0  0  0  0  0  0  0  0  0
  -10.0360  -24.0430   31.3668 H   0  0  0  0  0  0  0  0  0  0  0  0
  1  2  1  0
  2  3  1  0
  3  4  1  0
  4  5  2  0
  5  6  1  0
  6  7  2  0
  7  8  1  0
  8  9  2  0
  2 10  1  0
 10 11  2  0
 10 12  1  0
 12 13  1  0
 13 14  1  0
 14 15  2  0
 15 16  1  0
 16 17  1  0
 17 18  1  0
 17 19  1  0
 17 20  1  0
 20 21  2  0
 20 22  1  0
 16 23  1  0
  9  4  1  0
 23 13  2  0
  1 24  1  0
  1 25  1  0
  1 26  1  0
  2 27  1  0
  5 28  1  0
  6 29  1  0
  7 30  1  0
  8 31  1  0
 12 32  1  0
 14 33  1  0
 15 34  1  0
 18 35  1  0
 18 36  1  0
 18 37  1  0
 19 38  1  0
 19 39  1  0
 19 40  1  0
 22 41  1  0
M  END
>  <Energy>  (1217) 
164.42238492300032

>  <compound_id>  (1217) 
19103

>  <target_id>  (1217) 
1

>  <reference_id>  (1217) 
7

>  <inspiration_ids>  (1217) 
[7, 82]

>  <energy_score>  (1217) 
124.73303954007031

>  <distance_score>  (1217) 
11.359715090623068

>  <path>  (1217) 
/opt/xchem-fragalysis-2/maxwin/BulkDock/SCRATCH/511023/C19103-P7/C19103-P7.minimised.mol

>  <scratch_subdir>  (1217) 
/opt/xchem-fragalysis-2/maxwin/BulkDock/SCRATCH/511023/C19103-P7

>  <fragmenstein_runtime>  (1217) 
14.362943887710571

>  <fragmenstein_outcome>  (1217) 
too moved

>  <fragmenstein_mode>  (1217) 
expansion

>  <fragmenstein_error>  (1217) 


$$$$
C19103-P82
     RDKit          3D

 41 42  0  0  0  0  0  0  0  0999 V2000
  -16.6051  -11.2782   37.2217 C   0  0  0  0  0  0  0  0  0  0  0  0
  -15.1156  -11.4741   37.4745 C   0  0  0  0  0  0  0  0  0  0  0  0
  -14.6365  -10.4602   38.5118 O   0  0  0  0  0  0  0  0  0  0  0  0
  -14.7541   -9.0127   38.5652 C   0  0  0  0  0  0  0  0  0  0  0  0
  -13.9808   -8.3125   39.5258 C   0  0  0  0  0  0  0  0  0  0  0  0
  -14.1042   -6.9052   39.7338 C   0  0  0  0  0  0  0  0  0  0  0  0
  -15.0328   -6.1964   38.9921 C   0  0  0  0  0  0  0  0  0  0  0  0
  -15.7491   -6.9371   38.0581 C   0  0  0  0  0  0  0  0  0  0  0  0
  -15.6173   -8.2971   37.8187 N   0  0  0  0  0  0  0  0  0  0  0  0
  -14.9075  -13.2525   37.7445 C   0  0  0  0  0  0  0  0  0  0  0  0
  -14.6769  -13.5928   38.8640 O   0  0  0  0  0  0  0  0  0  0  0  0
  -14.9684  -14.1284   36.3680 N   0  0  0  0  0  0  0  0  0  0  0  0
  -14.6607  -15.5478   36.1270 C   0  0  0  0  0  0  0  0  0  0  0  0
  -13.8715  -16.4970   36.8753 C   0  0  0  0  0  0  0  0  0  0  0  0
  -13.8476  -17.7170   36.2090 C   0  0  0  0  0  0  0  0  0  0  0  0
  -14.8190  -17.5775   35.2568 N   0  0  0  0  0  0  0  0  0  0  0  0
  -15.8639  -18.5989   34.9586 C   0  0  0  0  0  0  0  0  0  0  0  0
  -15.2311  -19.8238   34.2704 C   0  0  0  0  0  0  0  0  0  0  0  0
  -16.5263  -19.0301   36.2883 C   0  0  0  0  0  0  0  0  0  0  0  0
  -17.0261  -18.1343   34.0629 C   0  0  0  0  0  0  0  0  0  0  0  0
  -17.8341  -18.9261   33.5857 O   0  0  0  0  0  0  0  0  0  0  0  0
  -17.1625  -16.8146   33.8253 O   0  0  0  0  0  0  0  0  0  0  0  0
  -15.0522  -16.2326   35.0038 N   0  0  0  0  0  0  0  0  0  0  0  0
  -16.8089  -10.3087   36.7607 H   0  0  0  0  0  0  0  0  0  0  0  0
  -17.0064  -12.0522   36.5610 H   0  0  0  0  0  0  0  0  0  0  0  0
  -17.1589  -11.3138   38.1656 H   0  0  0  0  0  0  0  0  0  0  0  0
  -14.5397  -11.2659   36.5668 H   0  0  0  0  0  0  0  0  0  0  0  0
  -13.2817   -8.8781   40.1377 H   0  0  0  0  0  0  0  0  0  0  0  0
  -13.4889   -6.4135   40.4820 H   0  0  0  0  0  0  0  0  0  0  0  0
  -15.1906   -5.1335   39.1255 H   0  0  0  0  0  0  0  0  0  0  0  0
  -16.4983   -6.4526   37.4344 H   0  0  0  0  0  0  0  0  0  0  0  0
  -15.2723  -13.5412   35.6042 H   0  0  0  0  0  0  0  0  0  0  0  0
  -13.3786  -16.3026   37.8164 H   0  0  0  0  0  0  0  0  0  0  0  0
  -13.4080  -18.6689   36.4731 H   0  0  0  0  0  0  0  0  0  0  0  0
  -14.1975  -19.9991   34.5824 H   0  0  0  0  0  0  0  0  0  0  0  0
  -15.2291  -19.7234   33.1822 H   0  0  0  0  0  0  0  0  0  0  0  0
  -15.8066  -20.7341   34.4774 H   0  0  0  0  0  0  0  0  0  0  0  0
  -15.8102  -19.5005   36.9710 H   0  0  0  0  0  0  0  0  0  0  0  0
  -16.9648  -18.1684   36.8063 H   0  0  0  0  0  0  0  0  0  0  0  0
  -17.3355  -19.7508   36.1202 H   0  0  0  0  0  0  0  0  0  0  0  0
  -16.4439  -16.2743   34.2389 H   0  0  0  0  0  0  0  0  0  0  0  0
  1  2  1  0
  2  3  1  0
  3  4  1  0
  4  5  2  0
  5  6  1  0
  6  7  2  0
  7  8  1  0
  8  9  2  0
  2 10  1  0
 10 11  2  0
 10 12  1  0
 12 13  1  0
 13 14  1  0
 14 15  2  0
 15 16  1  0
 16 17  1  0
 17 18  1  0
 17 19  1  0
 17 20  1  0
 20 21  2  0
 20 22  1  0
 16 23  1  0
  9  4  1  0
 23 13  2  0
  1 24  1  0
  1 25  1  0
  1 26  1  0
  2 27  1  0
  5 28  1  0
  6 29  1  0
  7 30  1  0
  8 31  1  0
 12 32  1  0
 14 33  1  0
 15 34  1  0
 18 35  1  0
 18 36  1  0
 18 37  1  0
 19 38  1  0
 19 39  1  0
 19 40  1  0
 22 41  1  0
M  END
>  <Energy>  (1218) 
67.695602025241783

>  <compound_id>  (1218) 
19103

>  <target_id>  (1218) 
1

>  <reference_id>  (1218) 
82

>  <inspiration_ids>  (1218) 
[7, 82]

>  <energy_score>  (1218) 
33.51882180471628

>  <distance_score>  (1218) 
10.644321065424954

>  <path>  (1218) 
/opt/xchem-fragalysis-2/maxwin/BulkDock/SCRATCH/511023/C19103-P82/C19103-P82.minimised.mol

>  <scratch_subdir>  (1218) 
/opt/xchem-fragalysis-2/maxwin/BulkDock/SCRATCH/511023/C19103-P82

>  <fragmenstein_runtime>  (1218) 
13.759108304977417

>  <fragmenstein_outcome>  (1218) 
too moved

>  <fragmenstein_mode>  (1218) 
expansion

>  <fragmenstein_error>  (1218) 


$$$$
C19099-P7
     RDKit          3D

 30 31  0  0  0  0  0  0  0  0999 V2000
  -12.3195  -10.4093   34.7089 C   0  0  0  0  0  0  0  0  0  0  0  0
  -10.4859  -10.2030   35.0598 C   0  0  0  0  0  0  0  0  0  0  0  0
   -8.9452  -11.6294   34.5170 C   0  0  0  0  0  0  0  0  0  0  0  0
   -9.2581  -13.1596   33.1242 C   0  0  0  0  0  0  0  0  0  0  0  0
  -10.3047  -14.6594   33.3372 C   0  0  0  0  0  0  0  0  0  0  0  0
   -9.9081  -16.0561   33.8143 C   0  0  0  0  0  0  0  0  0  0  0  0
   -8.6187  -16.5208   33.6257 C   0  0  0  0  0  0  0  0  0  0  0  0
   -7.8611  -15.6679   32.8266 C   0  0  0  0  0  0  0  0  0  0  0  0
   -7.9912  -14.1081   32.6194 N   0  0  0  0  0  0  0  0  0  0  0  0
  -11.3408  -10.7270   36.6118 C   0  0  0  0  0  0  0  0  0  0  0  0
  -12.5372  -10.6906   36.9148 O   0  0  0  0  0  0  0  0  0  0  0  0
  -10.5554  -11.1357   37.6374 O   0  0  0  0  0  0  0  0  0  0  0  0
  -10.3880   -9.2385   33.3204 N   0  0  0  0  0  0  0  0  0  0  0  0
   -9.7316   -9.6597   31.9753 C   0  0  0  0  0  0  0  0  0  0  0  0
   -9.3814   -8.6487   31.1372 C   0  0  0  0  0  0  0  0  0  0  0  0
   -9.1160   -7.7774   32.1404 C   0  0  0  0  0  0  0  0  0  0  0  0
   -9.9274   -7.8641   33.1804 N   0  0  0  0  0  0  0  0  0  0  0  0
  -12.8301  -10.4299   33.7694 H   0  0  0  0  0  0  0  0  0  0  0  0
  -12.7286  -11.3730   35.0606 H   0  0  0  0  0  0  0  0  0  0  0  0
  -12.8826   -9.5868   35.1681 H   0  0  0  0  0  0  0  0  0  0  0  0
   -9.1098  -11.6408   35.5529 H   0  0  0  0  0  0  0  0  0  0  0  0
   -7.9988  -11.1510   34.4763 H   0  0  0  0  0  0  0  0  0  0  0  0
  -11.3961  -14.7044   33.2441 H   0  0  0  0  0  0  0  0  0  0  0  0
  -10.6324  -16.6596   34.3532 H   0  0  0  0  0  0  0  0  0  0  0  0
   -8.2832  -17.5069   33.9126 H   0  0  0  0  0  0  0  0  0  0  0  0
   -7.0178  -16.1105   32.2899 H   0  0  0  0  0  0  0  0  0  0  0  0
  -11.1687  -11.4774   38.3381 H   0  0  0  0  0  0  0  0  0  0  0  0
   -9.4525  -10.6880   31.8845 H   0  0  0  0  0  0  0  0  0  0  0  0
   -8.8694   -8.7617   30.1929 H   0  0  0  0  0  0  0  0  0  0  0  0
   -8.2772   -7.1088   32.2243 H   0  0  0  0  0  0  0  0  0  0  0  0
  1  2  1  0
  2  3  1  0
  3  4  1  0
  4  5  2  0
  5  6  1  0
  6  7  2  0
  7  8  1  0
  8  9  2  0
  2 10  1  0
 10 11  2  0
 10 12  1  0
  2 13  1  0
 13 14  1  0
 14 15  2  0
 15 16  1  0
 16 17  2  0
  9  4  1  0
 17 13  1  0
  1 18  1  0
  1 19  1  0
  1 20  1  0
  3 21  1  0
  3 22  1  0
  5 23  1  0
  6 24  1  0
  7 25  1  0
  8 26  1  0
 12 27  1  0
 14 28  1  0
 15 29  1  0
 16 30  1  0
M  END
>  <Energy>  (1219) 
712.4767941333937

>  <compound_id>  (1219) 
19099

>  <target_id>  (1219) 
1

>  <reference_id>  (1219) 
7

>  <inspiration_ids>  (1219) 
[7, 82]

>  <energy_score>  (1219) 
680.8627794598515

>  <distance_score>  (1219) 
9.51673088991202

>  <path>  (1219) 
/opt/xchem-fragalysis-2/maxwin/BulkDock/SCRATCH/511023/C19099-P7/C19099-P7.minimised.mol

>  <scratch_subdir>  (1219) 
/opt/xchem-fragalysis-2/maxwin/BulkDock/SCRATCH/511023/C19099-P7

>  <fragmenstein_runtime>  (1219) 
7.022206544876099

>  <fragmenstein_outcome>  (1219) 
too moved

>  <fragmenstein_mode>  (1219) 
expansion

>  <fragmenstein_error>  (1219) 


$$$$
C19099-P82
     RDKit          3D

 30 31  0  0  0  0  0  0  0  0999 V2000
  -16.4878  -16.0079   34.8391 C   0  0  0  0  0  0  0  0  0  0  0  0
  -15.2237  -15.7914   35.7007 C   0  0  0  0  0  0  0  0  0  0  0  0
  -13.9722  -16.5545   35.1325 C   0  0  0  0  0  0  0  0  0  0  0  0
  -14.0244  -18.0703   34.9037 C   0  0  0  0  0  0  0  0  0  0  0  0
  -12.8471  -18.8157   34.8947 C   0  0  0  0  0  0  0  0  0  0  0  0
  -12.8690  -20.1274   34.4102 C   0  0  0  0  0  0  0  0  0  0  0  0
  -14.0594  -20.6892   33.9616 C   0  0  0  0  0  0  0  0  0  0  0  0
  -15.1922  -19.9107   34.0450 C   0  0  0  0  0  0  0  0  0  0  0  0
  -15.1857  -18.6176   34.4690 N   0  0  0  0  0  0  0  0  0  0  0  0
  -15.5303  -16.2939   37.1078 C   0  0  0  0  0  0  0  0  0  0  0  0
  -16.6184  -16.2703   37.6673 O   0  0  0  0  0  0  0  0  0  0  0  0
  -14.4709  -16.7638   37.8017 O   0  0  0  0  0  0  0  0  0  0  0  0
  -14.9902  -14.3080   35.7170 N   0  0  0  0  0  0  0  0  0  0  0  0
  -15.4830  -13.3761   36.6078 C   0  0  0  0  0  0  0  0  0  0  0  0
  -15.2564  -12.1323   36.0668 C   0  0  0  0  0  0  0  0  0  0  0  0
  -14.6530  -12.4029   34.8337 C   0  0  0  0  0  0  0  0  0  0  0  0
  -14.4550  -13.7081   34.6146 N   0  0  0  0  0  0  0  0  0  0  0  0
  -16.9294  -16.9982   34.9840 H   0  0  0  0  0  0  0  0  0  0  0  0
  -16.2772  -15.8734   33.7739 H   0  0  0  0  0  0  0  0  0  0  0  0
  -17.2766  -15.2909   35.1016 H   0  0  0  0  0  0  0  0  0  0  0  0
  -13.6990  -16.1284   34.1595 H   0  0  0  0  0  0  0  0  0  0  0  0
  -13.1157  -16.3463   35.7866 H   0  0  0  0  0  0  0  0  0  0  0  0
  -11.9016  -18.3639   35.1791 H   0  0  0  0  0  0  0  0  0  0  0  0
  -11.9566  -20.7084   34.3581 H   0  0  0  0  0  0  0  0  0  0  0  0
  -14.1000  -21.7057   33.5835 H   0  0  0  0  0  0  0  0  0  0  0  0
  -16.1614  -20.2954   33.7381 H   0  0  0  0  0  0  0  0  0  0  0  0
  -14.8759  -17.0757   38.6405 H   0  0  0  0  0  0  0  0  0  0  0  0
  -15.9663  -13.6656   37.5303 H   0  0  0  0  0  0  0  0  0  0  0  0
  -15.5156  -11.1765   36.4954 H   0  0  0  0  0  0  0  0  0  0  0  0
  -14.3585  -11.7114   34.0627 H   0  0  0  0  0  0  0  0  0  0  0  0
  1  2  1  0
  2  3  1  0
  3  4  1  0
  4  5  2  0
  5  6  1  0
  6  7  2  0
  7  8  1  0
  8  9  2  0
  2 10  1  0
 10 11  2  0
 10 12  1  0
  2 13  1  0
 13 14  1  0
 14 15  2  0
 15 16  1  0
 16 17  2  0
  9  4  1  0
 17 13  1  0
  1 18  1  0
  1 19  1  0
  1 20  1  0
  3 21  1  0
  3 22  1  0
  5 23  1  0
  6 24  1  0
  7 25  1  0
  8 26  1  0
 12 27  1  0
 14 28  1  0
 15 29  1  0
 16 30  1  0
M  END
>  <Energy>  (1220) 
10.643481946223472

>  <compound_id>  (1220) 
19099

>  <target_id>  (1220) 
1

>  <reference_id>  (1220) 
82

>  <inspiration_ids>  (1220) 
[7, 82]

>  <energy_score>  (1220) 
-20.970532727303635

>  <distance_score>  (1220) 
10.433887044603521

>  <path>  (1220) 
/opt/xchem-fragalysis-2/maxwin/BulkDock/SCRATCH/511023/C19099-P82/C19099-P82.minimised.mol

>  <scratch_subdir>  (1220) 
/opt/xchem-fragalysis-2/maxwin/BulkDock/SCRATCH/511023/C19099-P82

>  <fragmenstein_runtime>  (1220) 
8.197920322418213

>  <fragmenstein_outcome>  (1220) 
too moved

>  <fragmenstein_mode>  (1220) 
expansion

>  <fragmenstein_error>  (1220) 


$$$$
C19100-P7
     RDKit          3D

 41 42  0  0  0  0  0  0  0  0999 V2000
  -17.5116  -12.1098   35.3123 C   0  0  0  0  0  0  0  0  0  0  0  0
  -16.0377  -12.0001   34.9397 C   0  0  0  0  0  0  0  0  0  0  0  0
  -15.1590  -11.1198   36.3687 S   0  0  0  0  0  0  0  0  0  0  0  0
  -15.6147   -9.3808   36.2543 C   0  0  0  0  0  0  0  0  0  0  0  0
  -15.1780   -8.5302   37.2792 C   0  0  0  0  0  0  0  0  0  0  0  0
  -15.5464   -7.1839   37.2694 C   0  0  0  0  0  0  0  0  0  0  0  0
  -16.3263   -6.7149   36.2253 C   0  0  0  0  0  0  0  0  0  0  0  0
  -16.7027   -7.6202   35.2417 C   0  0  0  0  0  0  0  0  0  0  0  0
  -16.3794   -8.9406   35.2324 N   0  0  0  0  0  0  0  0  0  0  0  0
  -15.2416  -13.3662   34.7018 C   0  0  0  0  0  0  0  0  0  0  0  0
  -14.0501  -13.2508   34.5768 O   0  0  0  0  0  0  0  0  0  0  0  0
  -16.0740  -14.5499   34.7684 N   0  0  0  0  0  0  0  0  0  0  0  0
  -15.7451  -15.8818   34.8002 C   0  0  0  0  0  0  0  0  0  0  0  0
  -14.4803  -16.4985   34.9287 C   0  0  0  0  0  0  0  0  0  0  0  0
  -14.7325  -17.8478   35.0811 C   0  0  0  0  0  0  0  0  0  0  0  0
  -16.0896  -17.9936   34.9654 N   0  0  0  0  0  0  0  0  0  0  0  0
  -16.8808  -19.2387   34.9741 C   0  0  0  0  0  0  0  0  0  0  0  0
  -18.2765  -19.0247   34.3409 C   0  0  0  0  0  0  0  0  0  0  0  0
  -16.1677  -20.3393   34.1635 C   0  0  0  0  0  0  0  0  0  0  0  0
  -17.0887  -19.6943   36.4160 C   0  0  0  0  0  0  0  0  0  0  0  0
  -16.6886  -19.1611   37.4389 O   0  0  0  0  0  0  0  0  0  0  0  0
  -17.7994  -20.8417   36.5196 O   0  0  0  0  0  0  0  0  0  0  0  0
  -16.7077  -16.8085   34.7377 N   0  0  0  0  0  0  0  0  0  0  0  0
  -17.9606  -11.1324   35.5149 H   0  0  0  0  0  0  0  0  0  0  0  0
  -17.6639  -12.7352   36.1996 H   0  0  0  0  0  0  0  0  0  0  0  0
  -18.0864  -12.5520   34.4913 H   0  0  0  0  0  0  0  0  0  0  0  0
  -15.9047  -11.4033   34.0320 H   0  0  0  0  0  0  0  0  0  0  0  0
  -14.5650   -8.9145   38.0895 H   0  0  0  0  0  0  0  0  0  0  0  0
  -15.2228   -6.5189   38.0640 H   0  0  0  0  0  0  0  0  0  0  0  0
  -16.6227   -5.6741   36.1671 H   0  0  0  0  0  0  0  0  0  0  0  0
  -17.3026   -7.2928   34.3972 H   0  0  0  0  0  0  0  0  0  0  0  0
  -17.0376  -14.2723   34.7918 H   0  0  0  0  0  0  0  0  0  0  0  0
  -13.5127  -16.0156   34.9702 H   0  0  0  0  0  0  0  0  0  0  0  0
  -14.0614  -18.6768   35.2590 H   0  0  0  0  0  0  0  0  0  0  0  0
  -18.8846  -18.3292   34.9319 H   0  0  0  0  0  0  0  0  0  0  0  0
  -18.1967  -18.6260   33.3225 H   0  0  0  0  0  0  0  0  0  0  0  0
  -18.8397  -19.9636   34.2814 H   0  0  0  0  0  0  0  0  0  0  0  0
  -16.7604  -21.2607   34.1280 H   0  0  0  0  0  0  0  0  0  0  0  0
  -15.1979  -20.6073   34.5925 H   0  0  0  0  0  0  0  0  0  0  0  0
  -15.9936  -20.0192   33.1298 H   0  0  0  0  0  0  0  0  0  0  0  0
  -17.8533  -21.0063   37.4856 H   0  0  0  0  0  0  0  0  0  0  0  0
  1  2  1  0
  2  3  1  0
  3  4  1  0
  4  5  2  0
  5  6  1  0
  6  7  2  0
  7  8  1  0
  8  9  2  0
  2 10  1  0
 10 11  2  0
 10 12  1  0
 12 13  1  0
 13 14  1  0
 14 15  2  0
 15 16  1  0
 16 17  1  0
 17 18  1  0
 17 19  1  0
 17 20  1  0
 20 21  2  0
 20 22  1  0
 16 23  1  0
  9  4  1  0
 23 13  2  0
  1 24  1  0
  1 25  1  0
  1 26  1  0
  2 27  1  0
  5 28  1  0
  6 29  1  0
  7 30  1  0
  8 31  1  0
 12 32  1  0
 14 33  1  0
 15 34  1  0
 18 35  1  0
 18 36  1  0
 18 37  1  0
 19 38  1  0
 19 39  1  0
 19 40  1  0
 22 41  1  0
M  END
>  <Energy>  (1221) 
-5.6703461996337126

>  <compound_id>  (1221) 
19100

>  <target_id>  (1221) 
1

>  <reference_id>  (1221) 
7

>  <inspiration_ids>  (1221) 
[7, 82]

>  <energy_score>  (1221) 
-54.87532024226567

>  <distance_score>  (1221) 
10.180079596621924

>  <path>  (1221) 
/opt/xchem-fragalysis-2/maxwin/BulkDock/SCRATCH/511023/C19100-P7/C19100-P7.minimised.mol

>  <scratch_subdir>  (1221) 
/opt/xchem-fragalysis-2/maxwin/BulkDock/SCRATCH/511023/C19100-P7

>  <fragmenstein_runtime>  (1221) 
21.929092407226562

>  <fragmenstein_outcome>  (1221) 
too moved

>  <fragmenstein_mode>  (1221) 
expansion

>  <fragmenstein_error>  (1221) 


$$$$
C19100-P82
     RDKit          3D

 41 42  0  0  0  0  0  0  0  0999 V2000
  -16.7386  -15.7515   34.8040 C   0  0  0  0  0  0  0  0  0  0  0  0
  -15.3897  -15.9696   35.4853 C   0  0  0  0  0  0  0  0  0  0  0  0
  -15.5034  -15.5139   37.2839 S   0  0  0  0  0  0  0  0  0  0  0  0
  -15.4396  -13.6966   37.2715 C   0  0  0  0  0  0  0  0  0  0  0  0
  -15.3718  -13.0076   38.4886 C   0  0  0  0  0  0  0  0  0  0  0  0
  -15.2406  -11.6169   38.4938 C   0  0  0  0  0  0  0  0  0  0  0  0
  -15.1811  -10.9518   37.2832 C   0  0  0  0  0  0  0  0  0  0  0  0
  -15.2826  -11.7087   36.1242 C   0  0  0  0  0  0  0  0  0  0  0  0
  -15.4338  -13.0536   36.0910 N   0  0  0  0  0  0  0  0  0  0  0  0
  -14.7196  -17.4097   35.3060 C   0  0  0  0  0  0  0  0  0  0  0  0
  -13.5328  -17.4694   35.4943 O   0  0  0  0  0  0  0  0  0  0  0  0
  -15.6616  -18.4235   34.8406 N   0  0  0  0  0  0  0  0  0  0  0  0
  -15.4553  -19.7200   34.3929 C   0  0  0  0  0  0  0  0  0  0  0  0
  -16.5069  -20.6284   34.1228 C   0  0  0  0  0  0  0  0  0  0  0  0
  -15.9177  -21.7744   33.6432 C   0  0  0  0  0  0  0  0  0  0  0  0
  -14.5661  -21.5405   33.6160 N   0  0  0  0  0  0  0  0  0  0  0  0
  -13.5324  -22.3987   32.9834 C   0  0  0  0  0  0  0  0  0  0  0  0
  -13.9107  -22.6465   31.5340 C   0  0  0  0  0  0  0  0  0  0  0  0
  -12.1494  -21.7392   33.0361 C   0  0  0  0  0  0  0  0  0  0  0  0
  -13.3396  -23.7790   33.5945 C   0  0  0  0  0  0  0  0  0  0  0  0
  -12.3228  -24.4558   33.4762 O   0  0  0  0  0  0  0  0  0  0  0  0
  -14.3591  -24.2792   34.3120 O   0  0  0  0  0  0  0  0  0  0  0  0
  -14.2824  -20.2720   34.0592 N   0  0  0  0  0  0  0  0  0  0  0  0
  -17.5503  -16.2823   35.3141 H   0  0  0  0  0  0  0  0  0  0  0  0
  -17.0108  -14.6919   34.7734 H   0  0  0  0  0  0  0  0  0  0  0  0
  -16.7123  -16.1002   33.7668 H   0  0  0  0  0  0  0  0  0  0  0  0
  -14.6694  -15.2906   35.0100 H   0  0  0  0  0  0  0  0  0  0  0  0
  -15.3848  -13.5514   39.4274 H   0  0  0  0  0  0  0  0  0  0  0  0
  -15.1552  -11.0773   39.4312 H   0  0  0  0  0  0  0  0  0  0  0  0
  -15.0396   -9.8837   37.2600 H   0  0  0  0  0  0  0  0  0  0  0  0
  -15.2371  -11.2626   35.1392 H   0  0  0  0  0  0  0  0  0  0  0  0
  -16.5945  -18.0491   34.8797 H   0  0  0  0  0  0  0  0  0  0  0  0
  -17.5672  -20.4763   34.2637 H   0  0  0  0  0  0  0  0  0  0  0  0
  -16.3359  -22.7173   33.3127 H   0  0  0  0  0  0  0  0  0  0  0  0
  -14.8574  -23.1832   31.4800 H   0  0  0  0  0  0  0  0  0  0  0  0
  -14.0638  -21.7179   30.9946 H   0  0  0  0  0  0  0  0  0  0  0  0
  -13.1501  -23.2351   31.0089 H   0  0  0  0  0  0  0  0  0  0  0  0
  -11.3639  -22.4040   32.6602 H   0  0  0  0  0  0  0  0  0  0  0  0
  -11.9108  -21.4629   34.0650 H   0  0  0  0  0  0  0  0  0  0  0  0
  -12.0774  -20.8409   32.4343 H   0  0  0  0  0  0  0  0  0  0  0  0
  -13.8872  -24.9547   34.8714 H   0  0  0  0  0  0  0  0  0  0  0  0
  1  2  1  0
  2  3  1  0
  3  4  1  0
  4  5  2  0
  5  6  1  0
  6  7  2  0
  7  8  1  0
  8  9  2  0
  2 10  1  0
 10 11  2  0
 10 12  1  0
 12 13  1  0
 13 14  1  0
 14 15  2  0
 15 16  1  0
 16 17  1  0
 17 18  1  0
 17 19  1  0
 17 20  1  0
 20 21  2  0
 20 22  1  0
 16 23  1  0
  9  4  1  0
 23 13  2  0
  1 24  1  0
  1 25  1  0
  1 26  1  0
  2 27  1  0
  5 28  1  0
  6 29  1  0
  7 30  1  0
  8 31  1  0
 12 32  1  0
 14 33  1  0
 15 34  1  0
 18 35  1  0
 18 36  1  0
 18 37  1  0
 19 38  1  0
 19 39  1  0
 19 40  1  0
 22 41  1  0
M  END
>  <Energy>  (1222) 
7.9295797721655177

>  <compound_id>  (1222) 
19100

>  <target_id>  (1222) 
1

>  <reference_id>  (1222) 
82

>  <inspiration_ids>  (1222) 
[7, 82]

>  <energy_score>  (1222) 
-41.27539427046926

>  <distance_score>  (1222) 
9.972963915281774

>  <path>  (1222) 
/opt/xchem-fragalysis-2/maxwin/BulkDock/SCRATCH/511023/C19100-P82/C19100-P82.minimised.mol

>  <scratch_subdir>  (1222) 
/opt/xchem-fragalysis-2/maxwin/BulkDock/SCRATCH/511023/C19100-P82

>  <fragmenstein_runtime>  (1222) 
28.519554138183594

>  <fragmenstein_outcome>  (1222) 
too moved

>  <fragmenstein_mode>  (1222) 
expansion

>  <fragmenstein_error>  (1222) 


$$$$
C19101-P7
     RDKit          3D

 40 41  0  0  0  0  0  0  0  0999 V2000
  -17.2114  -11.5275   36.6052 C   0  0  0  0  0  0  0  0  0  0  0  0
  -15.7463  -11.2564   36.1873 C   0  0  0  0  0  0  0  0  0  0  0  0
  -15.3482  -12.1489   34.9177 C   0  0  0  0  0  0  0  0  0  0  0  0
  -15.1336  -13.6991   34.9745 C   0  0  0  0  0  0  0  0  0  0  0  0
  -15.9843  -14.5936   35.6243 C   0  0  0  0  0  0  0  0  0  0  0  0
  -15.6652  -15.9693   35.6854 C   0  0  0  0  0  0  0  0  0  0  0  0
  -14.5696  -16.4718   34.9918 C   0  0  0  0  0  0  0  0  0  0  0  0
  -13.8226  -15.5600   34.2784 C   0  0  0  0  0  0  0  0  0  0  0  0
  -14.0248  -14.2057   34.3457 N   0  0  0  0  0  0  0  0  0  0  0  0
  -14.8263  -11.6577   37.3232 C   0  0  0  0  0  0  0  0  0  0  0  0
  -15.1071  -12.4752   38.1926 O   0  0  0  0  0  0  0  0  0  0  0  0
  -13.5903  -11.1199   37.2762 O   0  0  0  0  0  0  0  0  0  0  0  0
  -15.6794   -9.7683   35.9858 N   0  0  0  0  0  0  0  0  0  0  0  0
  -15.4726   -8.7937   36.9592 C   0  0  0  0  0  0  0  0  0  0  0  0
  -15.8769   -7.5771   36.4437 C   0  0  0  0  0  0  0  0  0  0  0  0
  -15.8433   -6.2165   37.0779 C   0  0  0  0  0  0  0  0  0  0  0  0
  -17.1873   -5.8336   37.6911 C   0  0  0  0  0  0  0  0  0  0  0  0
  -17.1327   -4.4500   38.3214 C   0  0  0  0  0  0  0  0  0  0  0  0
  -18.4095   -4.1385   38.8608 O   0  0  0  0  0  0  0  0  0  0  0  0
  -16.3218   -7.9175   35.1465 C   0  0  0  0  0  0  0  0  0  0  0  0
  -16.2077   -9.2200   34.8659 N   0  0  0  0  0  0  0  0  0  0  0  0
  -17.5490  -10.8132   37.3672 H   0  0  0  0  0  0  0  0  0  0  0  0
  -17.8908  -11.4349   35.7502 H   0  0  0  0  0  0  0  0  0  0  0  0
  -17.3572  -12.5133   37.0491 H   0  0  0  0  0  0  0  0  0  0  0  0
  -16.0951  -11.9818   34.1299 H   0  0  0  0  0  0  0  0  0  0  0  0
  -14.4099  -11.7325   34.5239 H   0  0  0  0  0  0  0  0  0  0  0  0
  -16.8891  -14.2619   36.1156 H   0  0  0  0  0  0  0  0  0  0  0  0
  -16.3117  -16.6429   36.2439 H   0  0  0  0  0  0  0  0  0  0  0  0
  -14.3213  -17.5259   34.9997 H   0  0  0  0  0  0  0  0  0  0  0  0
  -12.9766  -15.8583   33.6710 H   0  0  0  0  0  0  0  0  0  0  0  0
  -13.0443  -11.5774   37.9683 H   0  0  0  0  0  0  0  0  0  0  0  0
  -15.0830   -9.0503   37.9345 H   0  0  0  0  0  0  0  0  0  0  0  0
  -15.5615   -5.4713   36.3249 H   0  0  0  0  0  0  0  0  0  0  0  0
  -15.0662   -6.1984   37.8514 H   0  0  0  0  0  0  0  0  0  0  0  0
  -17.9779   -5.8560   36.9298 H   0  0  0  0  0  0  0  0  0  0  0  0
  -17.4888   -6.5695   38.4479 H   0  0  0  0  0  0  0  0  0  0  0  0
  -16.3959   -4.4176   39.1303 H   0  0  0  0  0  0  0  0  0  0  0  0
  -16.8760   -3.6907   37.5762 H   0  0  0  0  0  0  0  0  0  0  0  0
  -18.3524   -3.2416   39.2326 H   0  0  0  0  0  0  0  0  0  0  0  0
  -16.7206   -7.2598   34.3848 H   0  0  0  0  0  0  0  0  0  0  0  0
  1  2  1  0
  2  3  1  0
  3  4  1  0
  4  5  2  0
  5  6  1  0
  6  7  2  0
  7  8  1  0
  8  9  2  0
  2 10  1  0
 10 11  2  0
 10 12  1  0
  2 13  1  0
 13 14  1  0
 14 15  2  0
 15 16  1  0
 16 17  1  0
 17 18  1  0
 18 19  1  0
 15 20  1  0
 20 21  2  0
  9  4  1  0
 21 13  1  0
  1 22  1  0
  1 23  1  0
  1 24  1  0
  3 25  1  0
  3 26  1  0
  5 27  1  0
  6 28  1  0
  7 29  1  0
  8 30  1  0
 12 31  1  0
 14 32  1  0
 16 33  1  0
 16 34  1  0
 17 35  1  0
 17 36  1  0
 18 37  1  0
 18 38  1  0
 19 39  1  0
 20 40  1  0
M  END
>  <Energy>  (1223) 
20.794005604508161

>  <compound_id>  (1223) 
19101

>  <target_id>  (1223) 
1

>  <reference_id>  (1223) 
7

>  <inspiration_ids>  (1223) 
[7, 82]

>  <energy_score>  (1223) 
-24.90339511124148

>  <distance_score>  (1223) 
9.390638201308862

>  <path>  (1223) 
/opt/xchem-fragalysis-2/maxwin/BulkDock/SCRATCH/511023/C19101-P7/C19101-P7.minimised.mol

>  <scratch_subdir>  (1223) 
/opt/xchem-fragalysis-2/maxwin/BulkDock/SCRATCH/511023/C19101-P7

>  <fragmenstein_runtime>  (1223) 
11.922058582305908

>  <fragmenstein_outcome>  (1223) 
too moved

>  <fragmenstein_mode>  (1223) 
expansion

>  <fragmenstein_error>  (1223) 


$$$$
C19101-P82
     RDKit          3D

 40 41  0  0  0  0  0  0  0  0999 V2000
  -15.0745  -12.3583   39.1266 C   0  0  0  0  0  0  0  0  0  0  0  0
  -15.8534  -11.7755   37.9213 C   0  0  0  0  0  0  0  0  0  0  0  0
  -15.3631  -12.3037   36.5172 C   0  0  0  0  0  0  0  0  0  0  0  0
  -15.0518  -13.8074   36.2458 C   0  0  0  0  0  0  0  0  0  0  0  0
  -14.3957  -14.1596   35.0620 C   0  0  0  0  0  0  0  0  0  0  0  0
  -13.9797  -15.4805   34.8405 C   0  0  0  0  0  0  0  0  0  0  0  0
  -14.2866  -16.4565   35.7722 C   0  0  0  0  0  0  0  0  0  0  0  0
  -15.0117  -16.0576   36.8812 C   0  0  0  0  0  0  0  0  0  0  0  0
  -15.4071  -14.7701   37.1398 N   0  0  0  0  0  0  0  0  0  0  0  0
  -17.3168  -12.2199   38.1266 C   0  0  0  0  0  0  0  0  0  0  0  0
  -18.2642  -11.4797   38.3600 O   0  0  0  0  0  0  0  0  0  0  0  0
  -17.5392  -13.5586   38.0631 O   0  0  0  0  0  0  0  0  0  0  0  0
  -15.7258  -10.2564   38.0056 N   0  0  0  0  0  0  0  0  0  0  0  0
  -16.6306   -9.2592   37.6743 C   0  0  0  0  0  0  0  0  0  0  0  0
  -16.1939   -8.0677   38.2411 C   0  0  0  0  0  0  0  0  0  0  0  0
  -16.8947   -6.7375   38.2855 C   0  0  0  0  0  0  0  0  0  0  0  0
  -16.0072   -5.5334   38.0009 C   0  0  0  0  0  0  0  0  0  0  0  0
  -16.7879   -4.2271   38.0666 C   0  0  0  0  0  0  0  0  0  0  0  0
  -15.8962   -3.1265   37.9525 O   0  0  0  0  0  0  0  0  0  0  0  0
  -14.9747   -8.4342   38.8429 C   0  0  0  0  0  0  0  0  0  0  0  0
  -14.6221   -9.6945   38.5801 N   0  0  0  0  0  0  0  0  0  0  0  0
  -15.1624  -13.4432   39.2182 H   0  0  0  0  0  0  0  0  0  0  0  0
  -14.0096  -12.1163   39.0878 H   0  0  0  0  0  0  0  0  0  0  0  0
  -15.4618  -11.9477   40.0688 H   0  0  0  0  0  0  0  0  0  0  0  0
  -14.4570  -11.7449   36.2513 H   0  0  0  0  0  0  0  0  0  0  0  0
  -16.1158  -12.0171   35.7687 H   0  0  0  0  0  0  0  0  0  0  0  0
  -14.1830  -13.3952   34.3181 H   0  0  0  0  0  0  0  0  0  0  0  0
  -13.4299  -15.7291   33.9343 H   0  0  0  0  0  0  0  0  0  0  0  0
  -13.9854  -17.4876   35.6338 H   0  0  0  0  0  0  0  0  0  0  0  0
  -15.3044  -16.7824   37.6376 H   0  0  0  0  0  0  0  0  0  0  0  0
  -16.7501  -14.1179   37.8493 H   0  0  0  0  0  0  0  0  0  0  0  0
  -17.5429   -9.4932   37.1421 H   0  0  0  0  0  0  0  0  0  0  0  0
  -17.7216   -6.7522   37.5638 H   0  0  0  0  0  0  0  0  0  0  0  0
  -17.3494   -6.6310   39.2788 H   0  0  0  0  0  0  0  0  0  0  0  0
  -15.1773   -5.4883   38.7165 H   0  0  0  0  0  0  0  0  0  0  0  0
  -15.5549   -5.6306   37.0088 H   0  0  0  0  0  0  0  0  0  0  0  0
  -17.5342   -4.1636   37.2681 H   0  0  0  0  0  0  0  0  0  0  0  0
  -17.3052   -4.1339   39.0266 H   0  0  0  0  0  0  0  0  0  0  0  0
  -15.5726   -3.0782   37.0345 H   0  0  0  0  0  0  0  0  0  0  0  0
  -14.3044   -7.8243   39.4366 H   0  0  0  0  0  0  0  0  0  0  0  0
  1  2  1  0
  2  3  1  0
  3  4  1  0
  4  5  2  0
  5  6  1  0
  6  7  2  0
  7  8  1  0
  8  9  2  0
  2 10  1  0
 10 11  2  0
 10 12  1  0
  2 13  1  0
 13 14  1  0
 14 15  2  0
 15 16  1  0
 16 17  1  0
 17 18  1  0
 18 19  1  0
 15 20  1  0
 20 21  2  0
  9  4  1  0
 21 13  1  0
  1 22  1  0
  1 23  1  0
  1 24  1  0
  3 25  1  0
  3 26  1  0
  5 27  1  0
  6 28  1  0
  7 29  1  0
  8 30  1  0
 12 31  1  0
 14 32  1  0
 16 33  1  0
 16 34  1  0
 17 35  1  0
 17 36  1  0
 18 37  1  0
 18 38  1  0
 19 39  1  0
 20 40  1  0
M  END
>  <Energy>  (1224) 
14.758492130429719

>  <compound_id>  (1224) 
19101

>  <target_id>  (1224) 
1

>  <reference_id>  (1224) 
82

>  <inspiration_ids>  (1224) 
[7, 82]

>  <energy_score>  (1224) 
-30.938908585316767

>  <distance_score>  (1224) 
9.948422847221147

>  <path>  (1224) 
/opt/xchem-fragalysis-2/maxwin/BulkDock/SCRATCH/511023/C19101-P82/C19101-P82.minimised.mol

>  <scratch_subdir>  (1224) 
/opt/xchem-fragalysis-2/maxwin/BulkDock/SCRATCH/511023/C19101-P82

>  <fragmenstein_runtime>  (1224) 
17.19725227355957

>  <fragmenstein_outcome>  (1224) 
too moved

>  <fragmenstein_mode>  (1224) 
expansion

>  <fragmenstein_error>  (1224) 


$$$$
C19102-P7
     RDKit          2D

  0  0  0  0  0  0  0  0  0  0999 V2000
M  END
>  <compound_id>  (1225) 
19102

>  <target_id>  (1225) 
1

>  <reference_id>  (1225) 
7

>  <inspiration_ids>  (1225) 
[7, 82]

>  <energy_score>  (1225) 
nan

>  <distance_score>  (1225) 
nan

>  <path>  (1225) 
/opt/xchem-fragalysis-2/maxwin/BulkDock/SCRATCH/511023/C19102-P7/C19102-P7.minimised.mol

>  <scratch_subdir>  (1225) 
/opt/xchem-fragalysis-2/maxwin/BulkDock/SCRATCH/511023/C19102-P7

>  <fragmenstein_runtime>  (1225) 
0.193511962890625

>  <fragmenstein_outcome>  (1225) 
too distant

>  <fragmenstein_mode>  (1225) 
expansion

>  <fragmenstein_error>  (1225) 
DistanceError: hit1

$$$$
C15161-P7
     RDKit          2D

  0  0  0  0  0  0  0  0  0  0999 V2000
M  END
>  <compound_id>  (1226) 
15161

>  <target_id>  (1226) 
1

>  <reference_id>  (1226) 
7

>  <inspiration_ids>  (1226) 
[7, 82]

>  <energy_score>  (1226) 
nan

>  <distance_score>  (1226) 
nan

>  <path>  (1226) 
/opt/xchem-fragalysis-2/maxwin/BulkDock/SCRATCH/511023/C15161-P7/C15161-P7.minimised.mol

>  <scratch_subdir>  (1226) 
/opt/xchem-fragalysis-2/maxwin/BulkDock/SCRATCH/511023/C15161-P7

>  <fragmenstein_runtime>  (1226) 
0.2626368999481201

>  <fragmenstein_outcome>  (1226) 
too distant

>  <fragmenstein_mode>  (1226) 
expansion

>  <fragmenstein_error>  (1226) 
DistanceError: hit0

$$$$
C24281-P7
     RDKit          2D

  0  0  0  0  0  0  0  0  0  0999 V2000
M  END
>  <compound_id>  (1227) 
24281

>  <target_id>  (1227) 
1

>  <reference_id>  (1227) 
7

>  <inspiration_ids>  (1227) 
[7, 82]

>  <energy_score>  (1227) 
nan

>  <distance_score>  (1227) 
nan

>  <path>  (1227) 
/opt/xchem-fragalysis-2/maxwin/BulkDock/SCRATCH/511023/C24281-P7/C24281-P7.minimised.mol

>  <scratch_subdir>  (1227) 
/opt/xchem-fragalysis-2/maxwin/BulkDock/SCRATCH/511023/C24281-P7

>  <fragmenstein_runtime>  (1227) 
0.4534730911254883

>  <fragmenstein_outcome>  (1227) 
too distant

>  <fragmenstein_mode>  (1227) 
expansion

>  <fragmenstein_error>  (1227) 
DistanceError: hit1

$$$$
C18755-P7
     RDKit          3D

 39 41  0  0  0  0  0  0  0  0999 V2000
  -15.7159  -11.9996   37.7475 C   0  0  0  0  0  0  0  0  0  0  0  0
  -15.6154  -11.5163   36.2823 C   0  0  0  0  0  0  0  0  0  0  0  0
  -16.6594  -12.3488   35.4173 C   0  0  0  0  0  0  0  0  0  0  0  0
  -16.4715  -13.8875   35.1893 C   0  0  0  0  0  0  0  0  0  0  0  0
  -17.1642  -14.5052   34.1422 C   0  0  0  0  0  0  0  0  0  0  0  0
  -17.0994  -15.8953   33.9673 C   0  0  0  0  0  0  0  0  0  0  0  0
  -16.3460  -16.6636   34.8392 C   0  0  0  0  0  0  0  0  0  0  0  0
  -15.6822  -15.9954   35.8459 C   0  0  0  0  0  0  0  0  0  0  0  0
  -15.7245  -14.6413   36.0348 N   0  0  0  0  0  0  0  0  0  0  0  0
  -14.2471  -11.7301   35.6261 C   0  0  0  0  0  0  0  0  0  0  0  0
  -14.0818  -12.3425   34.5746 O   0  0  0  0  0  0  0  0  0  0  0  0
  -13.1779  -11.1846   36.2480 O   0  0  0  0  0  0  0  0  0  0  0  0
  -15.8400  -10.0326   36.2907 N   0  0  0  0  0  0  0  0  0  0  0  0
  -15.4542   -9.1304   37.2730 C   0  0  0  0  0  0  0  0  0  0  0  0
  -15.8100   -7.8618   36.8567 C   0  0  0  0  0  0  0  0  0  0  0  0
  -15.5759   -6.6245   37.6005 C   0  0  0  0  0  0  0  0  0  0  0  0
  -15.2308   -6.6422   38.9556 C   0  0  0  0  0  0  0  0  0  0  0  0
  -14.9654   -5.4413   39.5949 C   0  0  0  0  0  0  0  0  0  0  0  0
  -15.0182   -4.2409   38.9849 N   0  0  0  0  0  0  0  0  0  0  0  0
  -15.3785   -4.2376   37.6856 C   0  0  0  0  0  0  0  0  0  0  0  0
  -15.6704   -5.3852   36.9646 C   0  0  0  0  0  0  0  0  0  0  0  0
  -16.3716   -8.1009   35.5811 C   0  0  0  0  0  0  0  0  0  0  0  0
  -16.3933   -9.3966   35.2394 N   0  0  0  0  0  0  0  0  0  0  0  0
  -16.5694  -11.5327   38.2558 H   0  0  0  0  0  0  0  0  0  0  0  0
  -15.8824  -13.0722   37.8449 H   0  0  0  0  0  0  0  0  0  0  0  0
  -14.8169  -11.7671   38.3274 H   0  0  0  0  0  0  0  0  0  0  0  0
  -16.7039  -11.9007   34.4144 H   0  0  0  0  0  0  0  0  0  0  0  0
  -17.6576  -12.2172   35.8566 H   0  0  0  0  0  0  0  0  0  0  0  0
  -17.7779  -13.9123   33.4676 H   0  0  0  0  0  0  0  0  0  0  0  0
  -17.6637  -16.3637   33.1645 H   0  0  0  0  0  0  0  0  0  0  0  0
  -16.3033  -17.7431   34.7599 H   0  0  0  0  0  0  0  0  0  0  0  0
  -15.0908  -16.5432   36.5761 H   0  0  0  0  0  0  0  0  0  0  0  0
  -13.2986  -10.8016   37.1374 H   0  0  0  0  0  0  0  0  0  0  0  0
  -14.9709   -9.4651   38.1791 H   0  0  0  0  0  0  0  0  0  0  0  0
  -15.1579   -7.5621   39.5236 H   0  0  0  0  0  0  0  0  0  0  0  0
  -14.6882   -5.4160   40.6454 H   0  0  0  0  0  0  0  0  0  0  0  0
  -15.4209   -3.2564   37.2197 H   0  0  0  0  0  0  0  0  0  0  0  0
  -15.9366   -5.2971   35.9180 H   0  0  0  0  0  0  0  0  0  0  0  0
  -16.7703   -7.3818   34.8768 H   0  0  0  0  0  0  0  0  0  0  0  0
  1  2  1  0
  2  3  1  0
  3  4  1  0
  4  5  2  0
  5  6  1  0
  6  7  2  0
  7  8  1  0
  8  9  2  0
  2 10  1  0
 10 11  2  0
 10 12  1  0
  2 13  1  0
 13 14  1  0
 14 15  2  0
 15 16  1  0
 16 17  2  0
 17 18  1  0
 18 19  2  0
 19 20  1  0
 20 21  2  0
 15 22  1  0
 22 23  2  0
  9  4  1  0
 23 13  1  0
 21 16  1  0
  1 24  1  0
  1 25  1  0
  1 26  1  0
  3 27  1  0
  3 28  1  0
  5 29  1  0
  6 30  1  0
  7 31  1  0
  8 32  1  0
 12 33  1  0
 14 34  1  0
 17 35  1  0
 18 36  1  0
 20 37  1  0
 21 38  1  0
 22 39  1  0
M  END
>  <Energy>  (1228) 
37.744621790468578

>  <compound_id>  (1228) 
18755

>  <target_id>  (1228) 
1

>  <reference_id>  (1228) 
7

>  <inspiration_ids>  (1228) 
[7, 82]

>  <energy_score>  (1228) 
-13.551826462853114

>  <distance_score>  (1228) 
9.642081796754665

>  <path>  (1228) 
/opt/xchem-fragalysis-2/maxwin/BulkDock/SCRATCH/511023/C18755-P7/C18755-P7.minimised.mol

>  <scratch_subdir>  (1228) 
/opt/xchem-fragalysis-2/maxwin/BulkDock/SCRATCH/511023/C18755-P7

>  <fragmenstein_runtime>  (1228) 
9.079558610916138

>  <fragmenstein_outcome>  (1228) 
too moved

>  <fragmenstein_mode>  (1228) 
expansion

>  <fragmenstein_error>  (1228) 


$$$$
C18755-P82
     RDKit          3D

 39 41  0  0  0  0  0  0  0  0999 V2000
  -16.6098  -12.0739   34.9116 C   0  0  0  0  0  0  0  0  0  0  0  0
  -16.3164  -12.3212   36.4040 C   0  0  0  0  0  0  0  0  0  0  0  0
  -15.0984  -13.3019   36.4926 C   0  0  0  0  0  0  0  0  0  0  0  0
  -15.0090  -14.7248   35.9044 C   0  0  0  0  0  0  0  0  0  0  0  0
  -15.5944  -15.8206   36.5428 C   0  0  0  0  0  0  0  0  0  0  0  0
  -15.2385  -17.1254   36.1683 C   0  0  0  0  0  0  0  0  0  0  0  0
  -14.2779  -17.3226   35.1902 C   0  0  0  0  0  0  0  0  0  0  0  0
  -13.7551  -16.1953   34.5886 C   0  0  0  0  0  0  0  0  0  0  0  0
  -14.1188  -14.9176   34.8883 N   0  0  0  0  0  0  0  0  0  0  0  0
  -17.4984  -12.9630   37.1163 C   0  0  0  0  0  0  0  0  0  0  0  0
  -17.4675  -13.6154   38.1494 O   0  0  0  0  0  0  0  0  0  0  0  0
  -18.6956  -12.7338   36.5326 O   0  0  0  0  0  0  0  0  0  0  0  0
  -16.0419  -11.0097   37.0892 N   0  0  0  0  0  0  0  0  0  0  0  0
  -16.8700   -9.8987   37.1755 C   0  0  0  0  0  0  0  0  0  0  0  0
  -16.2114   -8.9348   37.9258 C   0  0  0  0  0  0  0  0  0  0  0  0
  -16.6726   -7.5775   38.1973 C   0  0  0  0  0  0  0  0  0  0  0  0
  -16.1302   -6.8483   39.2587 C   0  0  0  0  0  0  0  0  0  0  0  0
  -16.5714   -5.5517   39.4684 C   0  0  0  0  0  0  0  0  0  0  0  0
  -17.4976   -4.9426   38.7012 N   0  0  0  0  0  0  0  0  0  0  0  0
  -18.0126   -5.6623   37.6841 C   0  0  0  0  0  0  0  0  0  0  0  0
  -17.6388   -6.9651   37.3955 C   0  0  0  0  0  0  0  0  0  0  0  0
  -15.0060   -9.5742   38.2845 C   0  0  0  0  0  0  0  0  0  0  0  0
  -14.8912  -10.7955   37.7642 N   0  0  0  0  0  0  0  0  0  0  0  0
  -15.7264  -11.6839   34.3946 H   0  0  0  0  0  0  0  0  0  0  0  0
  -16.9096  -13.0003   34.4080 H   0  0  0  0  0  0  0  0  0  0  0  0
  -17.4191  -11.3510   34.7602 H   0  0  0  0  0  0  0  0  0  0  0  0
  -14.2837  -12.7591   35.9984 H   0  0  0  0  0  0  0  0  0  0  0  0
  -14.8323  -13.4157   37.5519 H   0  0  0  0  0  0  0  0  0  0  0  0
  -16.2685  -15.6807   37.3829 H   0  0  0  0  0  0  0  0  0  0  0  0
  -15.6780  -17.9750   36.6849 H   0  0  0  0  0  0  0  0  0  0  0  0
  -13.9381  -18.3145   34.9167 H   0  0  0  0  0  0  0  0  0  0  0  0
  -13.0008  -16.2715   33.8150 H   0  0  0  0  0  0  0  0  0  0  0  0
  -19.3431  -13.1800   37.1211 H   0  0  0  0  0  0  0  0  0  0  0  0
  -17.8362   -9.9018   36.6905 H   0  0  0  0  0  0  0  0  0  0  0  0
  -15.3848   -7.2673   39.9259 H   0  0  0  0  0  0  0  0  0  0  0  0
  -16.1780   -4.9514   40.2844 H   0  0  0  0  0  0  0  0  0  0  0  0
  -18.7569   -5.1467   37.0835 H   0  0  0  0  0  0  0  0  0  0  0  0
  -18.0939   -7.4711   36.5521 H   0  0  0  0  0  0  0  0  0  0  0  0
  -14.1865   -9.1984   38.8839 H   0  0  0  0  0  0  0  0  0  0  0  0
  1  2  1  0
  2  3  1  0
  3  4  1  0
  4  5  2  0
  5  6  1  0
  6  7  2  0
  7  8  1  0
  8  9  2  0
  2 10  1  0
 10 11  2  0
 10 12  1  0
  2 13  1  0
 13 14  1  0
 14 15  2  0
 15 16  1  0
 16 17  2  0
 17 18  1  0
 18 19  2  0
 19 20  1  0
 20 21  2  0
 15 22  1  0
 22 23  2  0
  9  4  1  0
 23 13  1  0
 21 16  1  0
  1 24  1  0
  1 25  1  0
  1 26  1  0
  3 27  1  0
  3 28  1  0
  5 29  1  0
  6 30  1  0
  7 31  1  0
  8 32  1  0
 12 33  1  0
 14 34  1  0
 17 35  1  0
 18 36  1  0
 20 37  1  0
 21 38  1  0
 22 39  1  0
M  END
>  <Energy>  (1229) 
26.735367560384546

>  <compound_id>  (1229) 
18755

>  <target_id>  (1229) 
1

>  <reference_id>  (1229) 
82

>  <inspiration_ids>  (1229) 
[7, 82]

>  <energy_score>  (1229) 
-24.561080692930545

>  <distance_score>  (1229) 
9.873914178387194

>  <path>  (1229) 
/opt/xchem-fragalysis-2/maxwin/BulkDock/SCRATCH/511023/C18755-P82/C18755-P82.minimised.mol

>  <scratch_subdir>  (1229) 
/opt/xchem-fragalysis-2/maxwin/BulkDock/SCRATCH/511023/C18755-P82

>  <fragmenstein_runtime>  (1229) 
8.959231615066528

>  <fragmenstein_outcome>  (1229) 
too moved

>  <fragmenstein_mode>  (1229) 
expansion

>  <fragmenstein_error>  (1229) 


$$$$
C19103-P7
     RDKit          3D

 41 42  0  0  0  0  0  0  0  0999 V2000
  -11.2670  -21.6935   28.2922 C   0  0  0  0  0  0  0  0  0  0  0  0
  -11.9809  -20.6147   29.1613 C   0  0  0  0  0  0  0  0  0  0  0  0
  -12.2685  -18.8663   28.9709 O   0  0  0  0  0  0  0  0  0  0  0  0
  -11.5435  -17.4796   28.7558 C   0  0  0  0  0  0  0  0  0  0  0  0
  -12.2735  -16.2837   28.5365 C   0  0  0  0  0  0  0  0  0  0  0  0
  -11.6505  -15.0554   28.2519 C   0  0  0  0  0  0  0  0  0  0  0  0
  -10.2841  -15.0137   28.1103 C   0  0  0  0  0  0  0  0  0  0  0  0
   -9.6154  -16.1983   28.2723 C   0  0  0  0  0  0  0  0  0  0  0  0
  -10.2088  -17.3925   28.5775 N   0  0  0  0  0  0  0  0  0  0  0  0
  -12.3545  -21.3233   30.5103 C   0  0  0  0  0  0  0  0  0  0  0  0
  -13.4799  -21.6366   30.6541 O   0  0  0  0  0  0  0  0  0  0  0  0
  -11.2968  -21.4402   31.3382 N   0  0  0  0  0  0  0  0  0  0  0  0
  -11.1825  -22.0139   32.5127 C   0  0  0  0  0  0  0  0  0  0  0  0
  -12.2391  -22.1342   33.4225 C   0  0  0  0  0  0  0  0  0  0  0  0
  -12.0139  -23.3610   33.9798 C   0  0  0  0  0  0  0  0  0  0  0  0
  -10.8525  -23.8311   33.4275 N   0  0  0  0  0  0  0  0  0  0  0  0
  -10.0473  -25.0102   33.6849 C   0  0  0  0  0  0  0  0  0  0  0  0
  -10.9576  -26.0908   34.0911 C   0  0  0  0  0  0  0  0  0  0  0  0
   -9.1411  -24.8323   34.8895 C   0  0  0  0  0  0  0  0  0  0  0  0
   -9.3069  -25.4442   32.4171 C   0  0  0  0  0  0  0  0  0  0  0  0
   -8.3727  -26.2161   32.4324 O   0  0  0  0  0  0  0  0  0  0  0  0
   -9.7575  -24.9792   31.2264 O   0  0  0  0  0  0  0  0  0  0  0  0
  -10.2829  -22.9595   32.6175 N   0  0  0  0  0  0  0  0  0  0  0  0
  -11.5960  -21.6954   27.2489 H   0  0  0  0  0  0  0  0  0  0  0  0
  -10.2043  -21.5623   28.3016 H   0  0  0  0  0  0  0  0  0  0  0  0
  -11.4564  -22.7062   28.6689 H   0  0  0  0  0  0  0  0  0  0  0  0
  -12.8624  -20.8221   28.6560 H   0  0  0  0  0  0  0  0  0  0  0  0
  -13.3475  -16.2399   28.4385 H   0  0  0  0  0  0  0  0  0  0  0  0
  -12.2585  -14.1741   28.0754 H   0  0  0  0  0  0  0  0  0  0  0  0
   -9.7486  -14.1191   27.8323 H   0  0  0  0  0  0  0  0  0  0  0  0
   -8.5353  -16.2476   28.1593 H   0  0  0  0  0  0  0  0  0  0  0  0
  -10.5080  -20.9910   30.9170 H   0  0  0  0  0  0  0  0  0  0  0  0
  -13.1484  -21.5561   33.5072 H   0  0  0  0  0  0  0  0  0  0  0  0
  -12.6426  -23.9234   34.6435 H   0  0  0  0  0  0  0  0  0  0  0  0
  -11.1448  -26.8071   33.3123 H   0  0  0  0  0  0  0  0  0  0  0  0
  -10.6129  -26.7982   34.7729 H   0  0  0  0  0  0  0  0  0  0  0  0
  -11.7366  -25.6607   34.6987 H   0  0  0  0  0  0  0  0  0  0  0  0
   -8.6151  -23.8920   34.9941 H   0  0  0  0  0  0  0  0  0  0  0  0
   -9.6619  -24.8767   35.8391 H   0  0  0  0  0  0  0  0  0  0  0  0
   -8.3377  -25.5417   34.8639 H   0  0  0  0  0  0  0  0  0  0  0  0
  -10.0360  -24.0430   31.3668 H   0  0  0  0  0  0  0  0  0  0  0  0
  1  2  1  0
  2  3  1  0
  3  4  1  0
  4  5  2  0
  5  6  1  0
  6  7  2  0
  7  8  1  0
  8  9  2  0
  2 10  1  0
 10 11  2  0
 10 12  1  0
 12 13  1  0
 13 14  1  0
 14 15  2  0
 15 16  1  0
 16 17  1  0
 17 18  1  0
 17 19  1  0
 17 20  1  0
 20 21  2  0
 20 22  1  0
 16 23  1  0
  9  4  1  0
 23 13  2  0
  1 24  1  0
  1 25  1  0
  1 26  1  0
  2 27  1  0
  5 28  1  0
  6 29  1  0
  7 30  1  0
  8 31  1  0
 12 32  1  0
 14 33  1  0
 15 34  1  0
 18 35  1  0
 18 36  1  0
 18 37  1  0
 19 38  1  0
 19 39  1  0
 19 40  1  0
 22 41  1  0
M  END
>  <Energy>  (1230) 
164.42238492300032

>  <compound_id>  (1230) 
19103

>  <target_id>  (1230) 
1

>  <reference_id>  (1230) 
7

>  <inspiration_ids>  (1230) 
[7, 82]

>  <energy_score>  (1230) 
124.73303954007031

>  <distance_score>  (1230) 
11.359715090623068

>  <path>  (1230) 
/opt/xchem-fragalysis-2/maxwin/BulkDock/SCRATCH/511023/C19103-P7/C19103-P7.minimised.mol

>  <scratch_subdir>  (1230) 
/opt/xchem-fragalysis-2/maxwin/BulkDock/SCRATCH/511023/C19103-P7

>  <fragmenstein_runtime>  (1230) 
14.99159550666809

>  <fragmenstein_outcome>  (1230) 
too moved

>  <fragmenstein_mode>  (1230) 
expansion

>  <fragmenstein_error>  (1230) 


$$$$
C19103-P82
     RDKit          3D

 41 42  0  0  0  0  0  0  0  0999 V2000
  -16.6051  -11.2782   37.2217 C   0  0  0  0  0  0  0  0  0  0  0  0
  -15.1156  -11.4741   37.4745 C   0  0  0  0  0  0  0  0  0  0  0  0
  -14.6365  -10.4602   38.5118 O   0  0  0  0  0  0  0  0  0  0  0  0
  -14.7541   -9.0127   38.5652 C   0  0  0  0  0  0  0  0  0  0  0  0
  -13.9808   -8.3125   39.5258 C   0  0  0  0  0  0  0  0  0  0  0  0
  -14.1042   -6.9052   39.7338 C   0  0  0  0  0  0  0  0  0  0  0  0
  -15.0328   -6.1964   38.9921 C   0  0  0  0  0  0  0  0  0  0  0  0
  -15.7491   -6.9371   38.0581 C   0  0  0  0  0  0  0  0  0  0  0  0
  -15.6173   -8.2971   37.8187 N   0  0  0  0  0  0  0  0  0  0  0  0
  -14.9075  -13.2525   37.7445 C   0  0  0  0  0  0  0  0  0  0  0  0
  -14.6769  -13.5928   38.8640 O   0  0  0  0  0  0  0  0  0  0  0  0
  -14.9684  -14.1284   36.3680 N   0  0  0  0  0  0  0  0  0  0  0  0
  -14.6607  -15.5478   36.1270 C   0  0  0  0  0  0  0  0  0  0  0  0
  -13.8715  -16.4970   36.8753 C   0  0  0  0  0  0  0  0  0  0  0  0
  -13.8476  -17.7170   36.2090 C   0  0  0  0  0  0  0  0  0  0  0  0
  -14.8190  -17.5775   35.2568 N   0  0  0  0  0  0  0  0  0  0  0  0
  -15.8639  -18.5989   34.9586 C   0  0  0  0  0  0  0  0  0  0  0  0
  -15.2311  -19.8238   34.2704 C   0  0  0  0  0  0  0  0  0  0  0  0
  -16.5263  -19.0301   36.2883 C   0  0  0  0  0  0  0  0  0  0  0  0
  -17.0261  -18.1343   34.0629 C   0  0  0  0  0  0  0  0  0  0  0  0
  -17.8341  -18.9261   33.5857 O   0  0  0  0  0  0  0  0  0  0  0  0
  -17.1625  -16.8146   33.8253 O   0  0  0  0  0  0  0  0  0  0  0  0
  -15.0522  -16.2326   35.0038 N   0  0  0  0  0  0  0  0  0  0  0  0
  -16.8089  -10.3087   36.7607 H   0  0  0  0  0  0  0  0  0  0  0  0
  -17.0064  -12.0522   36.5610 H   0  0  0  0  0  0  0  0  0  0  0  0
  -17.1589  -11.3138   38.1656 H   0  0  0  0  0  0  0  0  0  0  0  0
  -14.5397  -11.2659   36.5668 H   0  0  0  0  0  0  0  0  0  0  0  0
  -13.2817   -8.8781   40.1377 H   0  0  0  0  0  0  0  0  0  0  0  0
  -13.4889   -6.4135   40.4820 H   0  0  0  0  0  0  0  0  0  0  0  0
  -15.1906   -5.1335   39.1255 H   0  0  0  0  0  0  0  0  0  0  0  0
  -16.4983   -6.4526   37.4344 H   0  0  0  0  0  0  0  0  0  0  0  0
  -15.2723  -13.5412   35.6042 H   0  0  0  0  0  0  0  0  0  0  0  0
  -13.3786  -16.3026   37.8164 H   0  0  0  0  0  0  0  0  0  0  0  0
  -13.4080  -18.6689   36.4731 H   0  0  0  0  0  0  0  0  0  0  0  0
  -14.1975  -19.9991   34.5824 H   0  0  0  0  0  0  0  0  0  0  0  0
  -15.2291  -19.7234   33.1822 H   0  0  0  0  0  0  0  0  0  0  0  0
  -15.8066  -20.7341   34.4774 H   0  0  0  0  0  0  0  0  0  0  0  0
  -15.8102  -19.5005   36.9710 H   0  0  0  0  0  0  0  0  0  0  0  0
  -16.9648  -18.1684   36.8063 H   0  0  0  0  0  0  0  0  0  0  0  0
  -17.3355  -19.7508   36.1202 H   0  0  0  0  0  0  0  0  0  0  0  0
  -16.4439  -16.2743   34.2389 H   0  0  0  0  0  0  0  0  0  0  0  0
  1  2  1  0
  2  3  1  0
  3  4  1  0
  4  5  2  0
  5  6  1  0
  6  7  2  0
  7  8  1  0
  8  9  2  0
  2 10  1  0
 10 11  2  0
 10 12  1  0
 12 13  1  0
 13 14  1  0
 14 15  2  0
 15 16  1  0
 16 17  1  0
 17 18  1  0
 17 19  1  0
 17 20  1  0
 20 21  2  0
 20 22  1  0
 16 23  1  0
  9  4  1  0
 23 13  2  0
  1 24  1  0
  1 25  1  0
  1 26  1  0
  2 27  1  0
  5 28  1  0
  6 29  1  0
  7 30  1  0
  8 31  1  0
 12 32  1  0
 14 33  1  0
 15 34  1  0
 18 35  1  0
 18 36  1  0
 18 37  1  0
 19 38  1  0
 19 39  1  0
 19 40  1  0
 22 41  1  0
M  END
>  <Energy>  (1231) 
67.695602025241783

>  <compound_id>  (1231) 
19103

>  <target_id>  (1231) 
1

>  <reference_id>  (1231) 
82

>  <inspiration_ids>  (1231) 
[7, 82]

>  <energy_score>  (1231) 
33.51882180471628

>  <distance_score>  (1231) 
10.644321065424954

>  <path>  (1231) 
/opt/xchem-fragalysis-2/maxwin/BulkDock/SCRATCH/511023/C19103-P82/C19103-P82.minimised.mol

>  <scratch_subdir>  (1231) 
/opt/xchem-fragalysis-2/maxwin/BulkDock/SCRATCH/511023/C19103-P82

>  <fragmenstein_runtime>  (1231) 
14.49497127532959

>  <fragmenstein_outcome>  (1231) 
too moved

>  <fragmenstein_mode>  (1231) 
expansion

>  <fragmenstein_error>  (1231) 


$$$$
C19104-P7
     RDKit          3D

 33 34  0  0  0  0  0  0  0  0999 V2000
  -17.8206  -11.7924   35.6846 C   0  0  0  0  0  0  0  0  0  0  0  0
  -16.3664  -11.4883   35.2910 C   0  0  0  0  0  0  0  0  0  0  0  0
  -15.4346  -12.6358   35.7961 C   0  0  0  0  0  0  0  0  0  0  0  0
  -15.4548  -14.1221   35.3245 C   0  0  0  0  0  0  0  0  0  0  0  0
  -16.2101  -15.0720   36.0183 C   0  0  0  0  0  0  0  0  0  0  0  0
  -15.8574  -16.4351   35.9531 C   0  0  0  0  0  0  0  0  0  0  0  0
  -14.7839  -16.8491   35.1698 C   0  0  0  0  0  0  0  0  0  0  0  0
  -14.1253  -15.8756   34.4458 C   0  0  0  0  0  0  0  0  0  0  0  0
  -14.4094  -14.5430   34.5488 N   0  0  0  0  0  0  0  0  0  0  0  0
  -16.2292  -11.4328   33.7869 C   0  0  0  0  0  0  0  0  0  0  0  0
  -17.1143  -11.6384   32.9699 O   0  0  0  0  0  0  0  0  0  0  0  0
  -14.9819  -11.1085   33.4150 O   0  0  0  0  0  0  0  0  0  0  0  0
  -15.9890  -10.1489   35.8748 N   0  0  0  0  0  0  0  0  0  0  0  0
  -16.4961   -8.8994   35.5544 C   0  0  0  0  0  0  0  0  0  0  0  0
  -15.9568   -7.9774   36.4456 C   0  0  0  0  0  0  0  0  0  0  0  0
  -16.1868   -6.5114   36.5888 C   0  0  0  0  0  0  0  0  0  0  0  0
  -15.0986   -5.8545   37.0663 F   0  0  0  0  0  0  0  0  0  0  0  0
  -17.2001   -6.2601   37.4595 F   0  0  0  0  0  0  0  0  0  0  0  0
  -16.5351   -5.9261   35.4159 F   0  0  0  0  0  0  0  0  0  0  0  0
  -15.1160   -8.7670   37.2527 C   0  0  0  0  0  0  0  0  0  0  0  0
  -15.1509  -10.0644   36.9373 N   0  0  0  0  0  0  0  0  0  0  0  0
  -17.9342  -11.8424   36.7736 H   0  0  0  0  0  0  0  0  0  0  0  0
  -18.1600  -12.7455   35.2641 H   0  0  0  0  0  0  0  0  0  0  0  0
  -18.5079  -11.0209   35.3177 H   0  0  0  0  0  0  0  0  0  0  0  0
  -15.5550  -12.6703   36.8883 H   0  0  0  0  0  0  0  0  0  0  0  0
  -14.3989  -12.3013   35.6332 H   0  0  0  0  0  0  0  0  0  0  0  0
  -17.0001  -14.7604   36.6964 H   0  0  0  0  0  0  0  0  0  0  0  0
  -16.4153  -17.1623   36.5388 H   0  0  0  0  0  0  0  0  0  0  0  0
  -14.4852  -17.8897   35.1209 H   0  0  0  0  0  0  0  0  0  0  0  0
  -13.2954  -16.1108   33.7853 H   0  0  0  0  0  0  0  0  0  0  0  0
  -14.9327  -11.1555   32.4236 H   0  0  0  0  0  0  0  0  0  0  0  0
  -17.1996   -8.7765   34.7415 H   0  0  0  0  0  0  0  0  0  0  0  0
  -14.4924   -8.4556   38.0828 H   0  0  0  0  0  0  0  0  0  0  0  0
  1  2  1  0
  2  3  1  0
  3  4  1  0
  4  5  2  0
  5  6  1  0
  6  7  2  0
  7  8  1  0
  8  9  2  0
  2 10  1  0
 10 11  2  0
 10 12  1  0
  2 13  1  0
 13 14  1  0
 14 15  2  0
 15 16  1  0
 16 17  1  0
 16 18  1  0
 16 19  1  0
 15 20  1  0
 20 21  2  0
  9  4  1  0
 21 13  1  0
  1 22  1  0
  1 23  1  0
  1 24  1  0
  3 25  1  0
  3 26  1  0
  5 27  1  0
  6 28  1  0
  7 29  1  0
  8 30  1  0
 12 31  1  0
 14 32  1  0
 20 33  1  0
M  END
>  <Energy>  (1232) 
34.781076430047271

>  <compound_id>  (1232) 
19104

>  <target_id>  (1232) 
1

>  <reference_id>  (1232) 
7

>  <inspiration_ids>  (1232) 
[7, 82]

>  <energy_score>  (1232) 
-43.00333296178883

>  <distance_score>  (1232) 
9.641717026057847

>  <path>  (1232) 
/opt/xchem-fragalysis-2/maxwin/BulkDock/SCRATCH/511023/C19104-P7/C19104-P7.minimised.mol

>  <scratch_subdir>  (1232) 
/opt/xchem-fragalysis-2/maxwin/BulkDock/SCRATCH/511023/C19104-P7

>  <fragmenstein_runtime>  (1232) 
7.672769784927368

>  <fragmenstein_outcome>  (1232) 
too moved

>  <fragmenstein_mode>  (1232) 
expansion

>  <fragmenstein_error>  (1232) 


$$$$
C19104-P82
     RDKit          3D

 33 34  0  0  0  0  0  0  0  0999 V2000
   -8.3165   -7.2797   32.9529 C   0  0  0  0  0  0  0  0  0  0  0  0
   -9.9635   -8.4314   33.6211 C   0  0  0  0  0  0  0  0  0  0  0  0
   -9.4397  -10.4332   32.6345 C   0  0  0  0  0  0  0  0  0  0  0  0
   -9.1079  -12.5410   33.0371 C   0  0  0  0  0  0  0  0  0  0  0  0
  -10.0967  -14.1313   33.2470 C   0  0  0  0  0  0  0  0  0  0  0  0
   -9.9119  -15.6990   33.5474 C   0  0  0  0  0  0  0  0  0  0  0  0
   -8.6760  -16.2620   33.5543 C   0  0  0  0  0  0  0  0  0  0  0  0
   -7.7407  -15.3181   33.1227 C   0  0  0  0  0  0  0  0  0  0  0  0
   -7.7585  -13.5834   32.8721 N   0  0  0  0  0  0  0  0  0  0  0  0
  -10.2301   -7.2871   32.7899 C   0  0  0  0  0  0  0  0  0  0  0  0
  -10.8333   -7.2039   31.7390 O   0  0  0  0  0  0  0  0  0  0  0  0
   -9.7247   -6.3854   33.5179 O   0  0  0  0  0  0  0  0  0  0  0  0
  -11.2501   -6.9753   34.4502 N   0  0  0  0  0  0  0  0  0  0  0  0
  -12.7117   -6.2023   35.1415 C   0  0  0  0  0  0  0  0  0  0  0  0
  -12.7128   -4.9232   35.7471 C   0  0  0  0  0  0  0  0  0  0  0  0
  -13.3578   -4.0579   36.9425 C   0  0  0  0  0  0  0  0  0  0  0  0
  -12.6603   -2.9087   37.1920 F   0  0  0  0  0  0  0  0  0  0  0  0
  -13.2908   -4.7393   38.1303 F   0  0  0  0  0  0  0  0  0  0  0  0
  -14.6751   -3.7313   36.8939 F   0  0  0  0  0  0  0  0  0  0  0  0
  -11.4324   -4.7363   35.5906 C   0  0  0  0  0  0  0  0  0  0  0  0
  -10.6484   -5.7926   35.2534 N   0  0  0  0  0  0  0  0  0  0  0  0
   -8.3999   -6.9298   31.9274 H   0  0  0  0  0  0  0  0  0  0  0  0
   -7.1835   -7.3998   32.9473 H   0  0  0  0  0  0  0  0  0  0  0  0
   -7.9823   -6.3929   33.5666 H   0  0  0  0  0  0  0  0  0  0  0  0
   -9.5618  -10.5691   31.5482 H   0  0  0  0  0  0  0  0  0  0  0  0
   -8.4480  -10.8357   32.5962 H   0  0  0  0  0  0  0  0  0  0  0  0
  -11.2197  -14.3205   33.2703 H   0  0  0  0  0  0  0  0  0  0  0  0
  -10.7493  -16.1739   34.0495 H   0  0  0  0  0  0  0  0  0  0  0  0
   -8.4251  -17.2331   33.9447 H   0  0  0  0  0  0  0  0  0  0  0  0
   -6.7500  -15.7907   33.2423 H   0  0  0  0  0  0  0  0  0  0  0  0
   -9.4487   -6.2684   34.4627 H   0  0  0  0  0  0  0  0  0  0  0  0
  -13.5122   -6.9071   35.2233 H   0  0  0  0  0  0  0  0  0  0  0  0
  -10.9531   -3.8797   36.0730 H   0  0  0  0  0  0  0  0  0  0  0  0
  1  2  1  0
  2  3  1  0
  3  4  1  0
  4  5  2  0
  5  6  1  0
  6  7  2  0
  7  8  1  0
  8  9  2  0
  2 10  1  0
 10 11  2  0
 10 12  1  0
  2 13  1  0
 13 14  1  0
 14 15  2  0
 15 16  1  0
 16 17  1  0
 16 18  1  0
 16 19  1  0
 15 20  1  0
 20 21  2  0
  9  4  1  0
 21 13  1  0
  1 22  1  0
  1 23  1  0
  1 24  1  0
  3 25  1  0
  3 26  1  0
  5 27  1  0
  6 28  1  0
  7 29  1  0
  8 30  1  0
 12 31  1  0
 14 32  1  0
 20 33  1  0
M  END
>  <Energy>  (1233) 
1416.0893947072009

>  <compound_id>  (1233) 
19104

>  <target_id>  (1233) 
1

>  <reference_id>  (1233) 
82

>  <inspiration_ids>  (1233) 
[7, 82]

>  <energy_score>  (1233) 
1338.3049853153589

>  <distance_score>  (1233) 
8.141144870279094

>  <path>  (1233) 
/opt/xchem-fragalysis-2/maxwin/BulkDock/SCRATCH/511023/C19104-P82/C19104-P82.minimised.mol

>  <scratch_subdir>  (1233) 
/opt/xchem-fragalysis-2/maxwin/BulkDock/SCRATCH/511023/C19104-P82

>  <fragmenstein_runtime>  (1233) 
10.263999462127686

>  <fragmenstein_outcome>  (1233) 
too moved

>  <fragmenstein_mode>  (1233) 
expansion

>  <fragmenstein_error>  (1233) 


$$$$
C47141-P7
     RDKit          3D

 48 49  0  0  0  0  0  0  0  0999 V2000
  -10.9802  -22.5978   32.5487 C   0  0  0  0  0  0  0  0  0  0  0  0
  -11.2166  -21.1133   32.3171 C   0  0  0  0  0  0  0  0  0  0  0  0
   -9.9751  -20.3618   32.2811 O   0  0  0  0  0  0  0  0  0  0  0  0
   -9.6593  -19.3217   33.3483 C   0  0  0  0  0  0  0  0  0  0  0  0
   -8.1719  -18.4125   33.7911 C   0  0  0  0  0  0  0  0  0  0  0  0
   -8.2901  -16.8882   33.7427 C   0  0  0  0  0  0  0  0  0  0  0  0
   -7.3093  -16.2193   33.6643 O   0  0  0  0  0  0  0  0  0  0  0  0
   -9.6374  -16.5316   33.8495 N   0  0  0  0  0  0  0  0  0  0  0  0
  -10.2499  -15.2925   33.9909 C   0  0  0  0  0  0  0  0  0  0  0  0
   -9.9814  -13.5763   32.9614 C   0  0  0  0  0  0  0  0  0  0  0  0
  -11.8324  -14.5619   32.8311 C   0  0  0  0  0  0  0  0  0  0  0  0
   -9.2409  -11.6164   32.6524 N   0  0  0  0  0  0  0  0  0  0  0  0
   -8.0264  -11.5141   32.3203 C   0  0  0  0  0  0  0  0  0  0  0  0
   -8.2438  -11.3858   34.2824 C   0  0  0  0  0  0  0  0  0  0  0  0
  -10.0903   -9.8103   32.8296 C   0  0  0  0  0  0  0  0  0  0  0  0
   -9.9323   -9.4677   33.9162 O   0  0  0  0  0  0  0  0  0  0  0  0
  -10.9606   -8.3845   31.9199 C   0  0  0  0  0  0  0  0  0  0  0  0
  -10.4406   -7.1617   32.1581 C   0  0  0  0  0  0  0  0  0  0  0  0
  -12.2543   -5.6606   31.5469 S   0  0  0  0  0  0  0  0  0  0  0  0
  -11.9407   -6.3437   30.1042 C   0  0  0  0  0  0  0  0  0  0  0  0
  -10.9446   -7.3158   30.4430 N   0  0  0  0  0  0  0  0  0  0  0  0
   -6.7610  -18.9884   33.6845 C   0  0  0  0  0  0  0  0  0  0  0  0
   -7.2627  -18.6109   35.0354 C   0  0  0  0  0  0  0  0  0  0  0  0
  -11.0836  -23.1125   31.5910 H   0  0  0  0  0  0  0  0  0  0  0  0
   -9.9791  -22.8397   32.9113 H   0  0  0  0  0  0  0  0  0  0  0  0
  -11.7249  -23.0027   33.2379 H   0  0  0  0  0  0  0  0  0  0  0  0
  -11.6610  -21.0691   31.3229 H   0  0  0  0  0  0  0  0  0  0  0  0
  -11.9188  -20.7047   33.0495 H   0  0  0  0  0  0  0  0  0  0  0  0
  -10.5882  -19.2401   33.9591 H   0  0  0  0  0  0  0  0  0  0  0  0
  -10.1339  -18.5470   32.9620 H   0  0  0  0  0  0  0  0  0  0  0  0
  -10.1774  -17.3475   33.9778 H   0  0  0  0  0  0  0  0  0  0  0  0
  -11.2244  -15.6380   34.3083 H   0  0  0  0  0  0  0  0  0  0  0  0
   -9.9296  -15.3230   35.0280 H   0  0  0  0  0  0  0  0  0  0  0  0
   -9.2551  -14.1984   32.3624 H   0  0  0  0  0  0  0  0  0  0  0  0
  -12.6929  -14.0920   32.3694 H   0  0  0  0  0  0  0  0  0  0  0  0
  -12.4713  -14.9863   33.6354 H   0  0  0  0  0  0  0  0  0  0  0  0
  -11.7035  -15.3311   32.0552 H   0  0  0  0  0  0  0  0  0  0  0  0
   -8.4146  -10.8140   31.5903 H   0  0  0  0  0  0  0  0  0  0  0  0
   -7.2039  -12.1939   32.0132 H   0  0  0  0  0  0  0  0  0  0  0  0
   -7.4526  -10.9513   34.8991 H   0  0  0  0  0  0  0  0  0  0  0  0
   -9.0555  -11.3627   34.9934 H   0  0  0  0  0  0  0  0  0  0  0  0
   -8.4727  -12.3714   34.0782 H   0  0  0  0  0  0  0  0  0  0  0  0
   -9.9036   -7.0105   33.1085 H   0  0  0  0  0  0  0  0  0  0  0  0
  -12.0628   -5.7175   29.2200 H   0  0  0  0  0  0  0  0  0  0  0  0
   -6.6250  -20.0281   33.4250 H   0  0  0  0  0  0  0  0  0  0  0  0
   -6.0030  -18.3666   33.2154 H   0  0  0  0  0  0  0  0  0  0  0  0
   -7.4997  -19.3035   35.8130 H   0  0  0  0  0  0  0  0  0  0  0  0
   -6.7627  -17.7553   35.4932 H   0  0  0  0  0  0  0  0  0  0  0  0
  1  2  1  0
  2  3  1  0
  3  4  1  0
  4  5  1  0
  5  6  1  0
  6  7  2  0
  6  8  1  0
  8  9  1  0
  9 10  1  0
 10 11  1  0
 10 12  1  0
 12 13  1  0
 13 14  1  0
 12 15  1  0
 15 16  2  0
 15 17  1  0
 17 18  2  0
 18 19  1  0
 19 20  1  0
 20 21  2  0
  5 22  1  0
 22 23  1  0
 23  5  1  0
 21 17  1  0
  1 24  1  0
  1 25  1  0
  1 26  1  0
  2 27  1  0
  2 28  1  0
  4 29  1  0
  4 30  1  0
  8 31  1  0
  9 32  1  0
  9 33  1  0
 10 34  1  0
 11 35  1  0
 11 36  1  0
 11 37  1  0
 13 38  1  0
 13 39  1  0
 14 40  1  0
 14 41  1  0
 14 42  1  0
 18 43  1  0
 20 44  1  0
 22 45  1  0
 22 46  1  0
 23 47  1  0
 23 48  1  0
M  END
>  <Energy>  (1234) 
1291.6140838732942

>  <compound_id>  (1234) 
47141

>  <target_id>  (1234) 
1

>  <reference_id>  (1234) 
7

>  <inspiration_ids>  (1234) 
[7, 82]

>  <energy_score>  (1234) 
1130.9187850475264

>  <distance_score>  (1234) 
9.334196923402462

>  <path>  (1234) 
/opt/xchem-fragalysis-2/maxwin/BulkDock/SCRATCH/511023/C47141-P7/C47141-P7.minimised.mol

>  <scratch_subdir>  (1234) 
/opt/xchem-fragalysis-2/maxwin/BulkDock/SCRATCH/511023/C47141-P7

>  <fragmenstein_runtime>  (1234) 
26.9198215007782

>  <fragmenstein_outcome>  (1234) 
too moved

>  <fragmenstein_mode>  (1234) 
expansion

>  <fragmenstein_error>  (1234) 


$$$$
C47141-P82
     RDKit          3D

 48 49  0  0  0  0  0  0  0  0999 V2000
  -16.5515  -21.1128   34.2155 C   0  0  0  0  0  0  0  0  0  0  0  0
  -15.5145  -20.1405   33.6899 C   0  0  0  0  0  0  0  0  0  0  0  0
  -15.7112  -18.8338   34.2358 O   0  0  0  0  0  0  0  0  0  0  0  0
  -14.7854  -18.4686   35.2644 C   0  0  0  0  0  0  0  0  0  0  0  0
  -15.5440  -17.8985   36.4602 C   0  0  0  0  0  0  0  0  0  0  0  0
  -15.5287  -16.3810   36.6566 C   0  0  0  0  0  0  0  0  0  0  0  0
  -14.5657  -15.9072   37.1796 O   0  0  0  0  0  0  0  0  0  0  0  0
  -16.7481  -15.7772   36.2249 N   0  0  0  0  0  0  0  0  0  0  0  0
  -17.2475  -14.4121   36.3698 C   0  0  0  0  0  0  0  0  0  0  0  0
  -16.1461  -13.0909   36.9316 C   0  0  0  0  0  0  0  0  0  0  0  0
  -14.9352  -12.9706   35.6625 C   0  0  0  0  0  0  0  0  0  0  0  0
  -16.6534  -11.6650   37.3488 N   0  0  0  0  0  0  0  0  0  0  0  0
  -15.8757  -13.2207   37.7828 C   0  0  0  0  0  0  0  0  0  0  0  0
  -16.7283  -13.9691   39.0603 C   0  0  0  0  0  0  0  0  0  0  0  0
  -16.7357  -10.9129   38.5240 C   0  0  0  0  0  0  0  0  0  0  0  0
  -17.7145  -10.9546   39.2605 O   0  0  0  0  0  0  0  0  0  0  0  0
  -15.6353   -9.9566   38.8145 C   0  0  0  0  0  0  0  0  0  0  0  0
  -14.2941  -10.1116   38.5051 C   0  0  0  0  0  0  0  0  0  0  0  0
  -13.3413   -9.0249   39.4373 S   0  0  0  0  0  0  0  0  0  0  0  0
  -14.7643   -8.2012   39.8985 C   0  0  0  0  0  0  0  0  0  0  0  0
  -15.8892   -8.7756   39.5407 N   0  0  0  0  0  0  0  0  0  0  0  0
  -16.7363  -18.6818   37.0156 C   0  0  0  0  0  0  0  0  0  0  0  0
  -15.4393  -18.7234   37.7460 C   0  0  0  0  0  0  0  0  0  0  0  0
  -17.5615  -20.7136   34.0763 H   0  0  0  0  0  0  0  0  0  0  0  0
  -16.4768  -22.0731   33.6969 H   0  0  0  0  0  0  0  0  0  0  0  0
  -16.4214  -21.2935   35.2843 H   0  0  0  0  0  0  0  0  0  0  0  0
  -14.4969  -20.5109   33.8532 H   0  0  0  0  0  0  0  0  0  0  0  0
  -15.6577  -20.0530   32.6081 H   0  0  0  0  0  0  0  0  0  0  0  0
  -14.1135  -17.7066   34.8553 H   0  0  0  0  0  0  0  0  0  0  0  0
  -14.1597  -19.3125   35.5703 H   0  0  0  0  0  0  0  0  0  0  0  0
  -17.3775  -16.5019   35.8973 H   0  0  0  0  0  0  0  0  0  0  0  0
  -18.1345  -14.4424   37.0119 H   0  0  0  0  0  0  0  0  0  0  0  0
  -17.6164  -14.1404   35.3741 H   0  0  0  0  0  0  0  0  0  0  0  0
  -16.7701  -12.6406   36.0615 H   0  0  0  0  0  0  0  0  0  0  0  0
  -15.4200  -12.8950   34.6804 H   0  0  0  0  0  0  0  0  0  0  0  0
  -14.3413  -12.0679   35.8253 H   0  0  0  0  0  0  0  0  0  0  0  0
  -14.3085  -13.8652   35.6565 H   0  0  0  0  0  0  0  0  0  0  0  0
  -15.3390  -12.6251   38.6435 H   0  0  0  0  0  0  0  0  0  0  0  0
  -14.7055  -13.5911   37.8201 H   0  0  0  0  0  0  0  0  0  0  0  0
  -17.7948  -13.7305   39.0042 H   0  0  0  0  0  0  0  0  0  0  0  0
  -16.3573  -13.6064   40.0266 H   0  0  0  0  0  0  0  0  0  0  0  0
  -16.5744  -15.0503   39.0162 H   0  0  0  0  0  0  0  0  0  0  0  0
  -13.8182  -10.8857   37.9237 H   0  0  0  0  0  0  0  0  0  0  0  0
  -14.7378   -7.2925   40.4856 H   0  0  0  0  0  0  0  0  0  0  0  0
  -17.5497  -18.1500   37.4987 H   0  0  0  0  0  0  0  0  0  0  0  0
  -17.0652  -19.5775   36.5083 H   0  0  0  0  0  0  0  0  0  0  0  0
  -15.3659  -18.1914   38.6895 H   0  0  0  0  0  0  0  0  0  0  0  0
  -14.9063  -19.6612   37.7432 H   0  0  0  0  0  0  0  0  0  0  0  0
  1  2  1  0
  2  3  1  0
  3  4  1  0
  4  5  1  0
  5  6  1  0
  6  7  2  0
  6  8  1  0
  8  9  1  0
  9 10  1  0
 10 11  1  0
 10 12  1  0
 12 13  1  0
 13 14  1  0
 12 15  1  0
 15 16  2  0
 15 17  1  0
 17 18  2  0
 18 19  1  0
 19 20  1  0
 20 21  2  0
  5 22  1  0
 22 23  1  0
 23  5  1  0
 21 17  1  0
  1 24  1  0
  1 25  1  0
  1 26  1  0
  2 27  1  0
  2 28  1  0
  4 29  1  0
  4 30  1  0
  8 31  1  0
  9 32  1  0
  9 33  1  0
 10 34  1  0
 11 35  1  0
 11 36  1  0
 11 37  1  0
 13 38  1  0
 13 39  1  0
 14 40  1  0
 14 41  1  0
 14 42  1  0
 18 43  1  0
 20 44  1  0
 22 45  1  0
 22 46  1  0
 23 47  1  0
 23 48  1  0
M  END
>  <Energy>  (1235) 
631.15498674247192

>  <compound_id>  (1235) 
47141

>  <target_id>  (1235) 
1

>  <reference_id>  (1235) 
82

>  <inspiration_ids>  (1235) 
[7, 82]

>  <energy_score>  (1235) 
470.45968791669134

>  <distance_score>  (1235) 
10.761621063517564

>  <path>  (1235) 
/opt/xchem-fragalysis-2/maxwin/BulkDock/SCRATCH/511023/C47141-P82/C47141-P82.minimised.mol

>  <scratch_subdir>  (1235) 
/opt/xchem-fragalysis-2/maxwin/BulkDock/SCRATCH/511023/C47141-P82

>  <fragmenstein_runtime>  (1235) 
31.879789113998413

>  <fragmenstein_outcome>  (1235) 
too moved

>  <fragmenstein_mode>  (1235) 
expansion

>  <fragmenstein_error>  (1235) 


$$$$
C19143-P7
     RDKit          3D

 51 52  0  0  0  0  0  0  0  0999 V2000
  -19.7403   -8.8686   39.8965 C   0  0  0  0  0  0  0  0  0  0  0  0
  -19.6423  -10.0060   38.8997 C   0  0  0  0  0  0  0  0  0  0  0  0
  -18.2836  -10.4308   38.8351 O   0  0  0  0  0  0  0  0  0  0  0  0
  -18.1126  -11.5175   37.9230 C   0  0  0  0  0  0  0  0  0  0  0  0
  -16.6425  -11.8701   37.7590 C   0  0  0  0  0  0  0  0  0  0  0  0
  -16.3953  -13.2496   37.1580 C   0  0  0  0  0  0  0  0  0  0  0  0
  -16.2505  -13.3066   35.9765 O   0  0  0  0  0  0  0  0  0  0  0  0
  -16.4231  -14.2832   38.1460 N   0  0  0  0  0  0  0  0  0  0  0  0
  -16.1872  -15.7291   38.0351 C   0  0  0  0  0  0  0  0  0  0  0  0
  -16.9682  -16.4023   36.8453 C   0  0  0  0  0  0  0  0  0  0  0  0
  -18.4161  -16.5928   37.3903 C   0  0  0  0  0  0  0  0  0  0  0  0
  -16.5780  -17.8110   36.3146 N   0  0  0  0  0  0  0  0  0  0  0  0
  -15.3962  -17.0254   35.7253 C   0  0  0  0  0  0  0  0  0  0  0  0
  -14.0766  -17.6180   36.2517 C   0  0  0  0  0  0  0  0  0  0  0  0
  -17.1849  -18.6308   35.2928 C   0  0  0  0  0  0  0  0  0  0  0  0
  -18.0893  -18.3927   34.5331 O   0  0  0  0  0  0  0  0  0  0  0  0
  -16.5497  -19.9627   35.0377 C   0  0  0  0  0  0  0  0  0  0  0  0
  -17.2763  -21.1015   35.3677 C   0  0  0  0  0  0  0  0  0  0  0  0
  -16.7916  -22.3381   34.9580 C   0  0  0  0  0  0  0  0  0  0  0  0
  -15.6094  -22.3954   34.2349 C   0  0  0  0  0  0  0  0  0  0  0  0
  -14.9611  -21.2125   33.9201 C   0  0  0  0  0  0  0  0  0  0  0  0
  -15.4046  -19.9843   34.2903 N   0  0  0  0  0  0  0  0  0  0  0  0
  -15.5711  -11.2544   38.6672 C   0  0  0  0  0  0  0  0  0  0  0  0
  -15.7346  -10.7212   37.2820 C   0  0  0  0  0  0  0  0  0  0  0  0
  -19.3994   -9.1923   40.8855 H   0  0  0  0  0  0  0  0  0  0  0  0
  -20.7696   -8.5085   39.9781 H   0  0  0  0  0  0  0  0  0  0  0  0
  -19.0969   -8.0353   39.5950 H   0  0  0  0  0  0  0  0  0  0  0  0
  -20.2763  -10.8396   39.2212 H   0  0  0  0  0  0  0  0  0  0  0  0
  -19.9707   -9.6639   37.9121 H   0  0  0  0  0  0  0  0  0  0  0  0
  -18.5273  -11.2518   36.9431 H   0  0  0  0  0  0  0  0  0  0  0  0
  -18.6591  -12.3845   38.3119 H   0  0  0  0  0  0  0  0  0  0  0  0
  -16.6502  -13.8732   39.0477 H   0  0  0  0  0  0  0  0  0  0  0  0
  -15.1083  -15.8376   37.9491 H   0  0  0  0  0  0  0  0  0  0  0  0
  -16.4670  -16.1803   38.9937 H   0  0  0  0  0  0  0  0  0  0  0  0
  -17.1671  -15.7182   36.0008 H   0  0  0  0  0  0  0  0  0  0  0  0
  -18.4382  -17.3321   38.1990 H   0  0  0  0  0  0  0  0  0  0  0  0
  -19.0902  -16.9460   36.6026 H   0  0  0  0  0  0  0  0  0  0  0  0
  -18.8263  -15.6508   37.7700 H   0  0  0  0  0  0  0  0  0  0  0  0
  -15.3862  -17.2520   34.6572 H   0  0  0  0  0  0  0  0  0  0  0  0
  -15.3058  -15.9280   35.7333 H   0  0  0  0  0  0  0  0  0  0  0  0
  -13.9722  -18.6708   35.9835 H   0  0  0  0  0  0  0  0  0  0  0  0
  -14.0013  -17.5568   37.3403 H   0  0  0  0  0  0  0  0  0  0  0  0
  -13.2252  -17.0875   35.8138 H   0  0  0  0  0  0  0  0  0  0  0  0
  -18.2146  -21.0216   35.9054 H   0  0  0  0  0  0  0  0  0  0  0  0
  -17.3234  -23.2513   35.2075 H   0  0  0  0  0  0  0  0  0  0  0  0
  -15.1846  -23.3487   33.9488 H   0  0  0  0  0  0  0  0  0  0  0  0
  -14.0280  -21.2393   33.3659 H   0  0  0  0  0  0  0  0  0  0  0  0
  -14.6697  -11.8208   38.8781 H   0  0  0  0  0  0  0  0  0  0  0  0
  -15.8819  -10.6231   39.4924 H   0  0  0  0  0  0  0  0  0  0  0  0
  -16.1698   -9.7349   37.1651 H   0  0  0  0  0  0  0  0  0  0  0  0
  -14.9648  -10.9474   36.5511 H   0  0  0  0  0  0  0  0  0  0  0  0
  1  2  1  0
  2  3  1  0
  3  4  1  0
  4  5  1  0
  5  6  1  0
  6  7  2  0
  6  8  1  0
  8  9  1  0
  9 10  1  0
 10 11  1  0
 10 12  1  0
 12 13  1  0
 13 14  1  0
 12 15  1  0
 15 16  2  0
 15 17  1  0
 17 18  2  0
 18 19  1  0
 19 20  2  0
 20 21  1  0
 21 22  2  0
  5 23  1  0
 23 24  1  0
 24  5  1  0
 22 17  1  0
  1 25  1  0
  1 26  1  0
  1 27  1  0
  2 28  1  0
  2 29  1  0
  4 30  1  0
  4 31  1  0
  8 32  1  0
  9 33  1  0
  9 34  1  0
 10 35  1  0
 11 36  1  0
 11 37  1  0
 11 38  1  0
 13 39  1  0
 13 40  1  0
 14 41  1  0
 14 42  1  0
 14 43  1  0
 18 44  1  0
 19 45  1  0
 20 46  1  0
 21 47  1  0
 23 48  1  0
 23 49  1  0
 24 50  1  0
 24 51  1  0
M  END
>  <Energy>  (1236) 
156.76009671107423

>  <compound_id>  (1236) 
19143

>  <target_id>  (1236) 
1

>  <reference_id>  (1236) 
7

>  <inspiration_ids>  (1236) 
[7, 82]

>  <energy_score>  (1236) 
27.894775579311727

>  <distance_score>  (1236) 
10.084150230533211

>  <path>  (1236) 
/opt/xchem-fragalysis-2/maxwin/BulkDock/SCRATCH/511023/C19143-P7/C19143-P7.minimised.mol

>  <scratch_subdir>  (1236) 
/opt/xchem-fragalysis-2/maxwin/BulkDock/SCRATCH/511023/C19143-P7

>  <fragmenstein_runtime>  (1236) 
24.2633695602417

>  <fragmenstein_outcome>  (1236) 
too moved

>  <fragmenstein_mode>  (1236) 
expansion

>  <fragmenstein_error>  (1236) 


$$$$
C19143-P82
     RDKit          3D

 51 52  0  0  0  0  0  0  0  0999 V2000
  -16.7368   -7.9320   36.1363 C   0  0  0  0  0  0  0  0  0  0  0  0
  -16.2609   -9.3507   36.3789 C   0  0  0  0  0  0  0  0  0  0  0  0
  -15.0676   -9.2922   37.1650 O   0  0  0  0  0  0  0  0  0  0  0  0
  -14.5537  -10.6015   37.4740 C   0  0  0  0  0  0  0  0  0  0  0  0
  -15.0661  -11.1237   38.8102 C   0  0  0  0  0  0  0  0  0  0  0  0
  -14.8877  -12.6398   39.0617 C   0  0  0  0  0  0  0  0  0  0  0  0
  -14.1993  -12.9587   39.9844 O   0  0  0  0  0  0  0  0  0  0  0  0
  -15.5747  -13.4358   38.0890 N   0  0  0  0  0  0  0  0  0  0  0  0
  -15.5742  -14.8824   37.8582 C   0  0  0  0  0  0  0  0  0  0  0  0
  -15.7425  -15.3330   36.3526 C   0  0  0  0  0  0  0  0  0  0  0  0
  -14.7017  -14.4987   35.5482 C   0  0  0  0  0  0  0  0  0  0  0  0
  -15.4496  -16.7920   35.8304 N   0  0  0  0  0  0  0  0  0  0  0  0
  -16.5981  -17.1335   36.7960 C   0  0  0  0  0  0  0  0  0  0  0  0
  -16.2374  -17.8854   38.0916 C   0  0  0  0  0  0  0  0  0  0  0  0
  -14.3271  -17.6676   36.0645 C   0  0  0  0  0  0  0  0  0  0  0  0
  -13.3751  -17.5398   36.7913 O   0  0  0  0  0  0  0  0  0  0  0  0
  -14.3221  -18.9174   35.1424 C   0  0  0  0  0  0  0  0  0  0  0  0
  -15.4523  -19.4217   34.4999 C   0  0  0  0  0  0  0  0  0  0  0  0
  -15.3457  -20.5672   33.6948 C   0  0  0  0  0  0  0  0  0  0  0  0
  -14.1106  -21.1774   33.5219 C   0  0  0  0  0  0  0  0  0  0  0  0
  -13.0225  -20.5977   34.1529 C   0  0  0  0  0  0  0  0  0  0  0  0
  -13.1054  -19.5031   34.9530 N   0  0  0  0  0  0  0  0  0  0  0  0
  -16.1800  -10.4008   39.5736 C   0  0  0  0  0  0  0  0  0  0  0  0
  -14.7654  -10.1799   39.9904 C   0  0  0  0  0  0  0  0  0  0  0  0
  -16.9370   -7.4258   37.0864 H   0  0  0  0  0  0  0  0  0  0  0  0
  -17.6486   -7.9241   35.5328 H   0  0  0  0  0  0  0  0  0  0  0  0
  -15.9673   -7.3477   35.6210 H   0  0  0  0  0  0  0  0  0  0  0  0
  -17.0356   -9.9202   36.9019 H   0  0  0  0  0  0  0  0  0  0  0  0
  -16.0610   -9.8452   35.4233 H   0  0  0  0  0  0  0  0  0  0  0  0
  -13.4665  -10.4933   37.5453 H   0  0  0  0  0  0  0  0  0  0  0  0
  -14.7615  -11.2899   36.6498 H   0  0  0  0  0  0  0  0  0  0  0  0
  -16.1320  -12.8292   37.5009 H   0  0  0  0  0  0  0  0  0  0  0  0
  -14.6506  -15.2896   38.2730 H   0  0  0  0  0  0  0  0  0  0  0  0
  -16.3964  -15.2487   38.4795 H   0  0  0  0  0  0  0  0  0  0  0  0
  -16.7028  -14.9802   35.9380 H   0  0  0  0  0  0  0  0  0  0  0  0
  -14.7646  -14.6901   34.4763 H   0  0  0  0  0  0  0  0  0  0  0  0
  -14.8390  -13.4227   35.6744 H   0  0  0  0  0  0  0  0  0  0  0  0
  -13.6863  -14.7693   35.8422 H   0  0  0  0  0  0  0  0  0  0  0  0
  -17.4328  -16.4278   36.9492 H   0  0  0  0  0  0  0  0  0  0  0  0
  -17.1471  -17.8923   36.2207 H   0  0  0  0  0  0  0  0  0  0  0  0
  -15.8552  -18.8885   37.8730 H   0  0  0  0  0  0  0  0  0  0  0  0
  -15.4891  -17.3712   38.6976 H   0  0  0  0  0  0  0  0  0  0  0  0
  -17.1376  -18.0144   38.7021 H   0  0  0  0  0  0  0  0  0  0  0  0
  -16.4218  -18.9582   34.6083 H   0  0  0  0  0  0  0  0  0  0  0  0
  -16.2280  -20.9856   33.2161 H   0  0  0  0  0  0  0  0  0  0  0  0
  -13.9964  -22.0738   32.9200 H   0  0  0  0  0  0  0  0  0  0  0  0
  -12.0289  -21.0185   34.0482 H   0  0  0  0  0  0  0  0  0  0  0  0
  -16.6944   -9.5557   39.1360 H   0  0  0  0  0  0  0  0  0  0  0  0
  -16.8083  -10.9901   40.2336 H   0  0  0  0  0  0  0  0  0  0  0  0
  -14.3150   -9.2158   39.7806 H   0  0  0  0  0  0  0  0  0  0  0  0
  -14.4322  -10.6150   40.9267 H   0  0  0  0  0  0  0  0  0  0  0  0
  1  2  1  0
  2  3  1  0
  3  4  1  0
  4  5  1  0
  5  6  1  0
  6  7  2  0
  6  8  1  0
  8  9  1  0
  9 10  1  0
 10 11  1  0
 10 12  1  0
 12 13  1  0
 13 14  1  0
 12 15  1  0
 15 16  2  0
 15 17  1  0
 17 18  2  0
 18 19  1  0
 19 20  2  0
 20 21  1  0
 21 22  2  0
  5 23  1  0
 23 24  1  0
 24  5  1  0
 22 17  1  0
  1 25  1  0
  1 26  1  0
  1 27  1  0
  2 28  1  0
  2 29  1  0
  4 30  1  0
  4 31  1  0
  8 32  1  0
  9 33  1  0
  9 34  1  0
 10 35  1  0
 11 36  1  0
 11 37  1  0
 11 38  1  0
 13 39  1  0
 13 40  1  0
 14 41  1  0
 14 42  1  0
 14 43  1  0
 18 44  1  0
 19 45  1  0
 20 46  1  0
 21 47  1  0
 23 48  1  0
 23 49  1  0
 24 50  1  0
 24 51  1  0
M  END
>  <Energy>  (1237) 
173.08871907222155

>  <compound_id>  (1237) 
19143

>  <target_id>  (1237) 
1

>  <reference_id>  (1237) 
82

>  <inspiration_ids>  (1237) 
[7, 82]

>  <energy_score>  (1237) 
44.223397940462064

>  <distance_score>  (1237) 
9.281616935682644

>  <path>  (1237) 
/opt/xchem-fragalysis-2/maxwin/BulkDock/SCRATCH/511023/C19143-P82/C19143-P82.minimised.mol

>  <scratch_subdir>  (1237) 
/opt/xchem-fragalysis-2/maxwin/BulkDock/SCRATCH/511023/C19143-P82

>  <fragmenstein_runtime>  (1237) 
17.38881826400757

>  <fragmenstein_outcome>  (1237) 
too moved

>  <fragmenstein_mode>  (1237) 
expansion

>  <fragmenstein_error>  (1237) 


$$$$
C19144-P7
     RDKit          3D

 54 55  0  0  0  0  0  0  0  0999 V2000
  -15.5730  -12.1893   33.4579 C   0  0  0  0  0  0  0  0  0  0  0  0
  -14.9738  -11.2740   34.5158 C   0  0  0  0  0  0  0  0  0  0  0  0
  -14.6176  -12.0207   35.7570 N   0  0  0  0  0  0  0  0  0  0  0  0
  -15.6911  -12.9596   36.1034 C   0  0  0  0  0  0  0  0  0  0  0  0
  -16.6609  -12.8138   36.8071 O   0  0  0  0  0  0  0  0  0  0  0  0
  -15.5044  -14.4536   35.5560 C   0  0  0  0  0  0  0  0  0  0  0  0
  -16.2526  -15.4824   36.1339 C   0  0  0  0  0  0  0  0  0  0  0  0
  -15.8685  -16.8243   35.9491 C   0  0  0  0  0  0  0  0  0  0  0  0
  -14.7561  -17.1334   35.1752 C   0  0  0  0  0  0  0  0  0  0  0  0
  -14.0890  -16.0800   34.5792 C   0  0  0  0  0  0  0  0  0  0  0  0
  -14.4064  -14.7650   34.7857 N   0  0  0  0  0  0  0  0  0  0  0  0
  -14.2983  -10.4696   36.3156 C   0  0  0  0  0  0  0  0  0  0  0  0
  -15.5187   -9.7812   36.9627 C   0  0  0  0  0  0  0  0  0  0  0  0
  -13.3043   -9.4222   35.5614 C   0  0  0  0  0  0  0  0  0  0  0  0
  -13.1408   -7.8100   36.1402 N   0  0  0  0  0  0  0  0  0  0  0  0
  -11.8305   -6.3804   35.6468 C   0  0  0  0  0  0  0  0  0  0  0  0
  -10.8661   -6.4321   34.9155 O   0  0  0  0  0  0  0  0  0  0  0  0
  -12.3365   -4.5600   36.4102 C   0  0  0  0  0  0  0  0  0  0  0  0
  -13.8599   -4.4107   36.8762 C   0  0  0  0  0  0  0  0  0  0  0  0
  -14.0905   -4.0571   38.3390 C   0  0  0  0  0  0  0  0  0  0  0  0
  -13.7262   -5.1790   39.1282 O   0  0  0  0  0  0  0  0  0  0  0  0
  -14.0145   -4.9731   40.5043 C   0  0  0  0  0  0  0  0  0  0  0  0
  -11.9474   -3.1895   35.5508 C   0  0  0  0  0  0  0  0  0  0  0  0
  -11.5003   -2.5257   36.8435 C   0  0  0  0  0  0  0  0  0  0  0  0
  -11.2307   -3.9304   37.3460 C   0  0  0  0  0  0  0  0  0  0  0  0
  -16.5480  -12.5897   33.7439 H   0  0  0  0  0  0  0  0  0  0  0  0
  -14.8902  -13.0009   33.2511 H   0  0  0  0  0  0  0  0  0  0  0  0
  -15.6941  -11.6407   32.5358 H   0  0  0  0  0  0  0  0  0  0  0  0
  -15.7320  -10.4934   34.6262 H   0  0  0  0  0  0  0  0  0  0  0  0
  -14.0541  -10.9596   34.0199 H   0  0  0  0  0  0  0  0  0  0  0  0
  -17.1013  -15.2476   36.7719 H   0  0  0  0  0  0  0  0  0  0  0  0
  -16.4429  -17.6140   36.4283 H   0  0  0  0  0  0  0  0  0  0  0  0
  -14.4313  -18.1587   35.0383 H   0  0  0  0  0  0  0  0  0  0  0  0
  -13.2273  -16.2410   33.9370 H   0  0  0  0  0  0  0  0  0  0  0  0
  -13.6959  -10.7573   37.1913 H   0  0  0  0  0  0  0  0  0  0  0  0
  -16.1805   -9.3134   36.2290 H   0  0  0  0  0  0  0  0  0  0  0  0
  -15.1906   -8.9943   37.6497 H   0  0  0  0  0  0  0  0  0  0  0  0
  -16.1077  -10.4871   37.5532 H   0  0  0  0  0  0  0  0  0  0  0  0
  -13.8882   -9.1897   34.6730 H   0  0  0  0  0  0  0  0  0  0  0  0
  -12.3803   -9.8995   35.2112 H   0  0  0  0  0  0  0  0  0  0  0  0
  -13.9492   -7.4304   36.7453 H   0  0  0  0  0  0  0  0  0  0  0  0
  -14.3401   -3.6122   36.3022 H   0  0  0  0  0  0  0  0  0  0  0  0
  -14.4204   -5.3210   36.6554 H   0  0  0  0  0  0  0  0  0  0  0  0
  -13.5294   -3.1769   38.6594 H   0  0  0  0  0  0  0  0  0  0  0  0
  -15.1575   -3.8501   38.4859 H   0  0  0  0  0  0  0  0  0  0  0  0
  -13.7039   -5.8635   41.0573 H   0  0  0  0  0  0  0  0  0  0  0  0
  -15.0884   -4.8258   40.6535 H   0  0  0  0  0  0  0  0  0  0  0  0
  -13.4582   -4.1121   40.8872 H   0  0  0  0  0  0  0  0  0  0  0  0
  -12.7383   -2.5896   35.0922 H   0  0  0  0  0  0  0  0  0  0  0  0
  -11.1633   -3.2816   34.8110 H   0  0  0  0  0  0  0  0  0  0  0  0
  -12.2868   -1.9758   37.3665 H   0  0  0  0  0  0  0  0  0  0  0  0
  -10.6240   -1.8769   36.7613 H   0  0  0  0  0  0  0  0  0  0  0  0
  -11.2593   -4.0664   38.4267 H   0  0  0  0  0  0  0  0  0  0  0  0
  -10.3063   -4.2679   36.9327 H   0  0  0  0  0  0  0  0  0  0  0  0
  1  2  1  0
  2  3  1  0
  3  4  1  0
  4  5  2  0
  4  6  1  0
  6  7  2  0
  7  8  1  0
  8  9  2  0
  9 10  1  0
 10 11  2  0
  3 12  1  0
 12 13  1  0
 12 14  1  0
 14 15  1  0
 15 16  1  0
 16 17  2  0
 16 18  1  0
 18 19  1  0
 19 20  1  0
 20 21  1  0
 21 22  1  0
 18 23  1  0
 23 24  1  0
 24 25  1  0
 11  6  1  0
 25 18  1  0
  1 26  1  0
  1 27  1  0
  1 28  1  0
  2 29  1  0
  2 30  1  0
  7 31  1  0
  8 32  1  0
  9 33  1  0
 10 34  1  0
 12 35  1  0
 13 36  1  0
 13 37  1  0
 13 38  1  0
 14 39  1  0
 14 40  1  0
 15 41  1  0
 19 42  1  0
 19 43  1  0
 20 44  1  0
 20 45  1  0
 22 46  1  0
 22 47  1  0
 22 48  1  0
 23 49  1  0
 23 50  1  0
 24 51  1  0
 24 52  1  0
 25 53  1  0
 25 54  1  0
M  END
>  <Energy>  (1238) 
361.56006485345404

>  <compound_id>  (1238) 
19144

>  <target_id>  (1238) 
1

>  <reference_id>  (1238) 
7

>  <inspiration_ids>  (1238) 
[7, 82]

>  <energy_score>  (1238) 
229.4340802491306

>  <distance_score>  (1238) 
7.324663035873474

>  <path>  (1238) 
/opt/xchem-fragalysis-2/maxwin/BulkDock/SCRATCH/511023/C19144-P7/C19144-P7.minimised.mol

>  <scratch_subdir>  (1238) 
/opt/xchem-fragalysis-2/maxwin/BulkDock/SCRATCH/511023/C19144-P7

>  <fragmenstein_runtime>  (1238) 
16.827538013458252

>  <fragmenstein_outcome>  (1238) 
too moved

>  <fragmenstein_mode>  (1238) 
expansion

>  <fragmenstein_error>  (1238) 


$$$$
C19144-P82
     RDKit          3D

 54 55  0  0  0  0  0  0  0  0999 V2000
  -15.7847  -13.1157   35.0133 C   0  0  0  0  0  0  0  0  0  0  0  0
  -16.3825  -12.9641   36.4140 C   0  0  0  0  0  0  0  0  0  0  0  0
  -15.5605  -13.7547   37.4541 N   0  0  0  0  0  0  0  0  0  0  0  0
  -16.0176  -15.1393   37.5077 C   0  0  0  0  0  0  0  0  0  0  0  0
  -16.8610  -15.6579   38.1981 O   0  0  0  0  0  0  0  0  0  0  0  0
  -15.2403  -16.1560   36.6190 C   0  0  0  0  0  0  0  0  0  0  0  0
  -14.1090  -15.8377   35.8829 C   0  0  0  0  0  0  0  0  0  0  0  0
  -13.4225  -16.8447   35.1862 C   0  0  0  0  0  0  0  0  0  0  0  0
  -13.8650  -18.1592   35.2386 C   0  0  0  0  0  0  0  0  0  0  0  0
  -15.0006  -18.4090   35.9783 C   0  0  0  0  0  0  0  0  0  0  0  0
  -15.6788  -17.4546   36.6607 N   0  0  0  0  0  0  0  0  0  0  0  0
  -15.9321  -12.5145   38.3563 C   0  0  0  0  0  0  0  0  0  0  0  0
  -15.7854  -13.0139   39.8176 C   0  0  0  0  0  0  0  0  0  0  0  0
  -14.9486  -11.2850   38.2157 C   0  0  0  0  0  0  0  0  0  0  0  0
  -15.5374   -9.9429   38.3185 N   0  0  0  0  0  0  0  0  0  0  0  0
  -16.0738   -9.2286   39.4500 C   0  0  0  0  0  0  0  0  0  0  0  0
  -16.2498   -9.5793   40.5852 O   0  0  0  0  0  0  0  0  0  0  0  0
  -16.3891   -7.6613   39.0421 C   0  0  0  0  0  0  0  0  0  0  0  0
  -15.1992   -6.7672   39.4833 C   0  0  0  0  0  0  0  0  0  0  0  0
  -15.2524   -5.3106   39.0089 C   0  0  0  0  0  0  0  0  0  0  0  0
  -13.9501   -4.7658   38.8291 O   0  0  0  0  0  0  0  0  0  0  0  0
  -13.2877   -4.4824   40.0523 C   0  0  0  0  0  0  0  0  0  0  0  0
  -17.0128   -7.4194   37.6203 C   0  0  0  0  0  0  0  0  0  0  0  0
  -18.0721   -6.5013   38.2474 C   0  0  0  0  0  0  0  0  0  0  0  0
  -17.7458   -7.1179   39.6138 C   0  0  0  0  0  0  0  0  0  0  0  0
  -16.3603  -12.5273   34.2913 H   0  0  0  0  0  0  0  0  0  0  0  0
  -15.8042  -14.1464   34.6768 H   0  0  0  0  0  0  0  0  0  0  0  0
  -14.7493  -12.7612   34.9896 H   0  0  0  0  0  0  0  0  0  0  0  0
  -17.4040  -13.3692   36.4078 H   0  0  0  0  0  0  0  0  0  0  0  0
  -16.4657  -11.8677   36.4791 H   0  0  0  0  0  0  0  0  0  0  0  0
  -13.7544  -14.8171   35.8441 H   0  0  0  0  0  0  0  0  0  0  0  0
  -12.5355  -16.5903   34.6124 H   0  0  0  0  0  0  0  0  0  0  0  0
  -13.3356  -18.9553   34.7285 H   0  0  0  0  0  0  0  0  0  0  0  0
  -15.4197  -19.4065   36.0613 H   0  0  0  0  0  0  0  0  0  0  0  0
  -17.0027  -12.2386   38.3295 H   0  0  0  0  0  0  0  0  0  0  0  0
  -14.7806  -13.4038   40.0083 H   0  0  0  0  0  0  0  0  0  0  0  0
  -15.9824  -12.2093   40.5320 H   0  0  0  0  0  0  0  0  0  0  0  0
  -16.4980  -13.8173   40.0301 H   0  0  0  0  0  0  0  0  0  0  0  0
  -14.1543  -11.3344   38.9691 H   0  0  0  0  0  0  0  0  0  0  0  0
  -14.4624  -11.2965   37.2352 H   0  0  0  0  0  0  0  0  0  0  0  0
  -15.4582   -9.3109   37.5397 H   0  0  0  0  0  0  0  0  0  0  0  0
  -15.1434   -6.7707   40.5804 H   0  0  0  0  0  0  0  0  0  0  0  0
  -14.2696   -7.2429   39.1671 H   0  0  0  0  0  0  0  0  0  0  0  0
  -15.7067   -5.2239   38.0223 H   0  0  0  0  0  0  0  0  0  0  0  0
  -15.8422   -4.6866   39.6904 H   0  0  0  0  0  0  0  0  0  0  0  0
  -12.3278   -4.0129   39.8203 H   0  0  0  0  0  0  0  0  0  0  0  0
  -13.0930   -5.4008   40.6131 H   0  0  0  0  0  0  0  0  0  0  0  0
  -13.8770   -3.7874   40.6580 H   0  0  0  0  0  0  0  0  0  0  0  0
  -16.3710   -6.9492   36.8720 H   0  0  0  0  0  0  0  0  0  0  0  0
  -17.4599   -8.3131   37.1673 H   0  0  0  0  0  0  0  0  0  0  0  0
  -19.0948   -6.6716   37.8972 H   0  0  0  0  0  0  0  0  0  0  0  0
  -17.8675   -5.4297   38.1734 H   0  0  0  0  0  0  0  0  0  0  0  0
  -18.4498   -7.9079   39.9034 H   0  0  0  0  0  0  0  0  0  0  0  0
  -17.6810   -6.4055   40.4417 H   0  0  0  0  0  0  0  0  0  0  0  0
  1  2  1  0
  2  3  1  0
  3  4  1  0
  4  5  2  0
  4  6  1  0
  6  7  2  0
  7  8  1  0
  8  9  2  0
  9 10  1  0
 10 11  2  0
  3 12  1  0
 12 13  1  0
 12 14  1  0
 14 15  1  0
 15 16  1  0
 16 17  2  0
 16 18  1  0
 18 19  1  0
 19 20  1  0
 20 21  1  0
 21 22  1  0
 18 23  1  0
 23 24  1  0
 24 25  1  0
 11  6  1  0
 25 18  1  0
  1 26  1  0
  1 27  1  0
  1 28  1  0
  2 29  1  0
  2 30  1  0
  7 31  1  0
  8 32  1  0
  9 33  1  0
 10 34  1  0
 12 35  1  0
 13 36  1  0
 13 37  1  0
 13 38  1  0
 14 39  1  0
 14 40  1  0
 15 41  1  0
 19 42  1  0
 19 43  1  0
 20 44  1  0
 20 45  1  0
 22 46  1  0
 22 47  1  0
 22 48  1  0
 23 49  1  0
 23 50  1  0
 24 51  1  0
 24 52  1  0
 25 53  1  0
 25 54  1  0
M  END
>  <Energy>  (1239) 
167.05243622577021

>  <compound_id>  (1239) 
19144

>  <target_id>  (1239) 
1

>  <reference_id>  (1239) 
82

>  <inspiration_ids>  (1239) 
[7, 82]

>  <energy_score>  (1239) 
34.92645162145345

>  <distance_score>  (1239) 
8.143125639945795

>  <path>  (1239) 
/opt/xchem-fragalysis-2/maxwin/BulkDock/SCRATCH/511023/C19144-P82/C19144-P82.minimised.mol

>  <scratch_subdir>  (1239) 
/opt/xchem-fragalysis-2/maxwin/BulkDock/SCRATCH/511023/C19144-P82

>  <fragmenstein_runtime>  (1239) 
19.57769799232483

>  <fragmenstein_outcome>  (1239) 
too moved

>  <fragmenstein_mode>  (1239) 
expansion

>  <fragmenstein_error>  (1239) 


$$$$
C47142-P7
     RDKit          3D

 54 55  0  0  0  0  0  0  0  0999 V2000
  -15.3522  -12.6317   33.8140 C   0  0  0  0  0  0  0  0  0  0  0  0
  -16.5618  -13.0637   34.6519 C   0  0  0  0  0  0  0  0  0  0  0  0
  -16.1731  -13.7614   35.9565 N   0  0  0  0  0  0  0  0  0  0  0  0
  -16.8163  -15.0565   36.0357 C   0  0  0  0  0  0  0  0  0  0  0  0
  -17.8762  -15.3748   36.5108 O   0  0  0  0  0  0  0  0  0  0  0  0
  -15.9978  -16.2522   35.5354 C   0  0  0  0  0  0  0  0  0  0  0  0
  -14.7350  -16.1680   34.9590 C   0  0  0  0  0  0  0  0  0  0  0  0
  -13.9993  -17.3272   34.7346 C   0  0  0  0  0  0  0  0  0  0  0  0
  -14.5087  -18.5664   34.8620 N   0  0  0  0  0  0  0  0  0  0  0  0
  -15.7633  -18.6525   35.3434 C   0  0  0  0  0  0  0  0  0  0  0  0
  -16.5179  -17.5463   35.7116 C   0  0  0  0  0  0  0  0  0  0  0  0
  -16.5966  -12.3471   36.5776 C   0  0  0  0  0  0  0  0  0  0  0  0
  -18.1107  -12.1342   36.8457 C   0  0  0  0  0  0  0  0  0  0  0  0
  -15.8028  -11.0183   36.2918 C   0  0  0  0  0  0  0  0  0  0  0  0
  -15.9865   -9.8784   37.1832 N   0  0  0  0  0  0  0  0  0  0  0  0
  -16.8045   -8.6938   37.0509 C   0  0  0  0  0  0  0  0  0  0  0  0
  -17.6043   -8.3841   36.2078 O   0  0  0  0  0  0  0  0  0  0  0  0
  -16.4480   -7.6194   38.2089 C   0  0  0  0  0  0  0  0  0  0  0  0
  -15.1745   -6.8222   37.8232 C   0  0  0  0  0  0  0  0  0  0  0  0
  -15.4243   -5.4147   37.2927 C   0  0  0  0  0  0  0  0  0  0  0  0
  -15.4481   -4.5245   38.4099 O   0  0  0  0  0  0  0  0  0  0  0  0
  -15.6512   -3.1782   38.0097 C   0  0  0  0  0  0  0  0  0  0  0  0
  -17.6704   -6.7795   38.7507 C   0  0  0  0  0  0  0  0  0  0  0  0
  -17.0336   -6.8518   40.1480 C   0  0  0  0  0  0  0  0  0  0  0  0
  -16.3566   -8.1540   39.6823 C   0  0  0  0  0  0  0  0  0  0  0  0
  -14.8427  -11.7319   34.1528 H   0  0  0  0  0  0  0  0  0  0  0  0
  -14.5899  -13.4071   33.7979 H   0  0  0  0  0  0  0  0  0  0  0  0
  -15.6743  -12.4371   32.7878 H   0  0  0  0  0  0  0  0  0  0  0  0
  -17.3810  -12.3402   34.5991 H   0  0  0  0  0  0  0  0  0  0  0  0
  -16.9990  -13.8733   34.0433 H   0  0  0  0  0  0  0  0  0  0  0  0
  -14.3084  -15.2213   34.6740 H   0  0  0  0  0  0  0  0  0  0  0  0
  -12.9786  -17.2797   34.3674 H   0  0  0  0  0  0  0  0  0  0  0  0
  -16.1607  -19.6587   35.4471 H   0  0  0  0  0  0  0  0  0  0  0  0
  -17.5050  -17.6972   36.1415 H   0  0  0  0  0  0  0  0  0  0  0  0
  -16.2546  -12.5696   37.6032 H   0  0  0  0  0  0  0  0  0  0  0  0
  -18.2507  -11.4197   37.6649 H   0  0  0  0  0  0  0  0  0  0  0  0
  -18.6520  -11.7301   35.9858 H   0  0  0  0  0  0  0  0  0  0  0  0
  -18.5996  -13.0636   37.1474 H   0  0  0  0  0  0  0  0  0  0  0  0
  -14.7283  -11.2304   36.2942 H   0  0  0  0  0  0  0  0  0  0  0  0
  -16.0911  -10.6193   35.3155 H   0  0  0  0  0  0  0  0  0  0  0  0
  -15.3645   -9.7637   37.9773 H   0  0  0  0  0  0  0  0  0  0  0  0
  -14.4943   -6.7667   38.6811 H   0  0  0  0  0  0  0  0  0  0  0  0
  -14.6695   -7.4064   37.0526 H   0  0  0  0  0  0  0  0  0  0  0  0
  -16.3493   -5.3460   36.7108 H   0  0  0  0  0  0  0  0  0  0  0  0
  -14.5895   -5.1092   36.6583 H   0  0  0  0  0  0  0  0  0  0  0  0
  -14.8525   -2.8521   37.3372 H   0  0  0  0  0  0  0  0  0  0  0  0
  -16.6260   -3.0681   37.5263 H   0  0  0  0  0  0  0  0  0  0  0  0
  -15.6338   -2.5473   38.9024 H   0  0  0  0  0  0  0  0  0  0  0  0
  -18.6284   -7.3128   38.6865 H   0  0  0  0  0  0  0  0  0  0  0  0
  -17.8326   -5.7740   38.3586 H   0  0  0  0  0  0  0  0  0  0  0  0
  -17.7337   -6.9555   40.9811 H   0  0  0  0  0  0  0  0  0  0  0  0
  -16.3354   -6.0408   40.3779 H   0  0  0  0  0  0  0  0  0  0  0  0
  -16.9649   -9.0485   39.8685 H   0  0  0  0  0  0  0  0  0  0  0  0
  -15.3572   -8.3355   40.0881 H   0  0  0  0  0  0  0  0  0  0  0  0
  1  2  1  0
  2  3  1  0
  3  4  1  0
  4  5  2  0
  4  6  1  0
  6  7  2  0
  7  8  1  0
  8  9  2  0
  9 10  1  0
 10 11  2  0
  3 12  1  0
 12 13  1  0
 12 14  1  0
 14 15  1  0
 15 16  1  0
 16 17  2  0
 16 18  1  0
 18 19  1  0
 19 20  1  0
 20 21  1  0
 21 22  1  0
 18 23  1  0
 23 24  1  0
 24 25  1  0
 11  6  1  0
 25 18  1  0
  1 26  1  0
  1 27  1  0
  1 28  1  0
  2 29  1  0
  2 30  1  0
  7 31  1  0
  8 32  1  0
 10 33  1  0
 11 34  1  0
 12 35  1  0
 13 36  1  0
 13 37  1  0
 13 38  1  0
 14 39  1  0
 14 40  1  0
 15 41  1  0
 19 42  1  0
 19 43  1  0
 20 44  1  0
 20 45  1  0
 22 46  1  0
 22 47  1  0
 22 48  1  0
 23 49  1  0
 23 50  1  0
 24 51  1  0
 24 52  1  0
 25 53  1  0
 25 54  1  0
M  END
>  <Energy>  (1240) 
120.80348641545194

>  <compound_id>  (1240) 
47142

>  <target_id>  (1240) 
1

>  <reference_id>  (1240) 
7

>  <inspiration_ids>  (1240) 
[7, 82]

>  <energy_score>  (1240) 
47.373347666572954

>  <distance_score>  (1240) 
8.343437595391569

>  <path>  (1240) 
/opt/xchem-fragalysis-2/maxwin/BulkDock/SCRATCH/511023/C47142-P7/C47142-P7.minimised.mol

>  <scratch_subdir>  (1240) 
/opt/xchem-fragalysis-2/maxwin/BulkDock/SCRATCH/511023/C47142-P7

>  <fragmenstein_runtime>  (1240) 
27.677788972854614

>  <fragmenstein_outcome>  (1240) 
too moved

>  <fragmenstein_mode>  (1240) 
expansion

>  <fragmenstein_error>  (1240) 


$$$$
C47142-P82
     RDKit          3D

 54 55  0  0  0  0  0  0  0  0999 V2000
  -17.1264  -13.8896   35.5398 C   0  0  0  0  0  0  0  0  0  0  0  0
  -16.8533  -13.2792   36.9256 C   0  0  0  0  0  0  0  0  0  0  0  0
  -15.4364  -13.6232   37.3905 N   0  0  0  0  0  0  0  0  0  0  0  0
  -15.3677  -15.0075   37.7814 C   0  0  0  0  0  0  0  0  0  0  0  0
  -15.5414  -15.5268   38.8545 O   0  0  0  0  0  0  0  0  0  0  0  0
  -14.9028  -15.9687   36.6993 C   0  0  0  0  0  0  0  0  0  0  0  0
  -14.1370  -15.5614   35.6108 C   0  0  0  0  0  0  0  0  0  0  0  0
  -13.6780  -16.5226   34.7186 C   0  0  0  0  0  0  0  0  0  0  0  0
  -13.9694  -17.8434   34.7972 N   0  0  0  0  0  0  0  0  0  0  0  0
  -14.7034  -18.2221   35.8629 C   0  0  0  0  0  0  0  0  0  0  0  0
  -15.1735  -17.3405   36.8290 C   0  0  0  0  0  0  0  0  0  0  0  0
  -15.6430  -12.3196   38.2556 C   0  0  0  0  0  0  0  0  0  0  0  0
  -16.7516  -12.2597   39.3423 C   0  0  0  0  0  0  0  0  0  0  0  0
  -15.2680  -10.9309   37.5959 C   0  0  0  0  0  0  0  0  0  0  0  0
  -15.2699   -9.7647   38.4924 N   0  0  0  0  0  0  0  0  0  0  0  0
  -15.9030   -8.4693   38.3639 C   0  0  0  0  0  0  0  0  0  0  0  0
  -16.6562   -8.0447   37.5254 O   0  0  0  0  0  0  0  0  0  0  0  0
  -15.4877   -7.4430   39.5644 C   0  0  0  0  0  0  0  0  0  0  0  0
  -16.2189   -6.0622   39.4224 C   0  0  0  0  0  0  0  0  0  0  0  0
  -15.6845   -5.1560   38.3204 C   0  0  0  0  0  0  0  0  0  0  0  0
  -14.4775   -4.5687   38.7963 O   0  0  0  0  0  0  0  0  0  0  0  0
  -13.9940   -3.5241   37.9705 C   0  0  0  0  0  0  0  0  0  0  0  0
  -13.9795   -7.3464   40.0086 C   0  0  0  0  0  0  0  0  0  0  0  0
  -14.4455   -7.3030   41.4681 C   0  0  0  0  0  0  0  0  0  0  0  0
  -15.7524   -7.9768   41.0147 C   0  0  0  0  0  0  0  0  0  0  0  0
  -18.0975  -13.5467   35.1661 H   0  0  0  0  0  0  0  0  0  0  0  0
  -16.3593  -13.5879   34.8197 H   0  0  0  0  0  0  0  0  0  0  0  0
  -17.1695  -14.9807   35.5783 H   0  0  0  0  0  0  0  0  0  0  0  0
  -17.5871  -13.7521   37.5948 H   0  0  0  0  0  0  0  0  0  0  0  0
  -17.1132  -12.2301   36.7510 H   0  0  0  0  0  0  0  0  0  0  0  0
  -13.8951  -14.5156   35.4588 H   0  0  0  0  0  0  0  0  0  0  0  0
  -13.0750  -16.2200   33.8668 H   0  0  0  0  0  0  0  0  0  0  0  0
  -14.9230  -19.2822   35.9256 H   0  0  0  0  0  0  0  0  0  0  0  0
  -15.7501  -17.7136   37.6703 H   0  0  0  0  0  0  0  0  0  0  0  0
  -14.7688  -12.4689   38.9132 H   0  0  0  0  0  0  0  0  0  0  0  0
  -17.7054  -11.8980   38.9443 H   0  0  0  0  0  0  0  0  0  0  0  0
  -16.9107  -13.2419   39.7991 H   0  0  0  0  0  0  0  0  0  0  0  0
  -16.4632  -11.5713   40.1446 H   0  0  0  0  0  0  0  0  0  0  0  0
  -14.2585  -10.9915   37.1781 H   0  0  0  0  0  0  0  0  0  0  0  0
  -15.9277  -10.6783   36.7620 H   0  0  0  0  0  0  0  0  0  0  0  0
  -14.6319   -9.7434   39.2786 H   0  0  0  0  0  0  0  0  0  0  0  0
  -16.1686   -5.5094   40.3694 H   0  0  0  0  0  0  0  0  0  0  0  0
  -17.2843   -6.2542   39.2413 H   0  0  0  0  0  0  0  0  0  0  0  0
  -16.4169   -4.3611   38.1369 H   0  0  0  0  0  0  0  0  0  0  0  0
  -15.5145   -5.6909   37.3830 H   0  0  0  0  0  0  0  0  0  0  0  0
  -13.6088   -3.9386   37.0386 H   0  0  0  0  0  0  0  0  0  0  0  0
  -14.7731   -2.7821   37.7734 H   0  0  0  0  0  0  0  0  0  0  0  0
  -13.1669   -3.0317   38.4892 H   0  0  0  0  0  0  0  0  0  0  0  0
  -13.4031   -6.4666   39.7248 H   0  0  0  0  0  0  0  0  0  0  0  0
  -13.3655   -8.2253   39.7843 H   0  0  0  0  0  0  0  0  0  0  0  0
  -14.5764   -6.2906   41.8658 H   0  0  0  0  0  0  0  0  0  0  0  0
  -13.8398   -7.8778   42.1738 H   0  0  0  0  0  0  0  0  0  0  0  0
  -15.7296   -9.0682   41.1155 H   0  0  0  0  0  0  0  0  0  0  0  0
  -16.6583   -7.6190   41.5142 H   0  0  0  0  0  0  0  0  0  0  0  0
  1  2  1  0
  2  3  1  0
  3  4  1  0
  4  5  2  0
  4  6  1  0
  6  7  2  0
  7  8  1  0
  8  9  2  0
  9 10  1  0
 10 11  2  0
  3 12  1  0
 12 13  1  0
 12 14  1  0
 14 15  1  0
 15 16  1  0
 16 17  2  0
 16 18  1  0
 18 19  1  0
 19 20  1  0
 20 21  1  0
 21 22  1  0
 18 23  1  0
 23 24  1  0
 24 25  1  0
 11  6  1  0
 25 18  1  0
  1 26  1  0
  1 27  1  0
  1 28  1  0
  2 29  1  0
  2 30  1  0
  7 31  1  0
  8 32  1  0
 10 33  1  0
 11 34  1  0
 12 35  1  0
 13 36  1  0
 13 37  1  0
 13 38  1  0
 14 39  1  0
 14 40  1  0
 15 41  1  0
 19 42  1  0
 19 43  1  0
 20 44  1  0
 20 45  1  0
 22 46  1  0
 22 47  1  0
 22 48  1  0
 23 49  1  0
 23 50  1  0
 24 51  1  0
 24 52  1  0
 25 53  1  0
 25 54  1  0
M  END
>  <Energy>  (1241) 
109.12833811152439

>  <compound_id>  (1241) 
47142

>  <target_id>  (1241) 
1

>  <reference_id>  (1241) 
82

>  <inspiration_ids>  (1241) 
[7, 82]

>  <energy_score>  (1241) 
35.69819936264048

>  <distance_score>  (1241) 
8.485766516905553

>  <path>  (1241) 
/opt/xchem-fragalysis-2/maxwin/BulkDock/SCRATCH/511023/C47142-P82/C47142-P82.minimised.mol

>  <scratch_subdir>  (1241) 
/opt/xchem-fragalysis-2/maxwin/BulkDock/SCRATCH/511023/C47142-P82

>  <fragmenstein_runtime>  (1241) 
23.099357843399048

>  <fragmenstein_outcome>  (1241) 
too moved

>  <fragmenstein_mode>  (1241) 
expansion

>  <fragmenstein_error>  (1241) 


$$$$
C19145-P7
     RDKit          3D

 47 48  0  0  0  0  0  0  0  0999 V2000
   -8.5851   -0.9320   39.2666 C   0  0  0  0  0  0  0  0  0  0  0  0
   -9.8104   -1.4876   38.8100 O   0  0  0  0  0  0  0  0  0  0  0  0
   -9.9756   -1.3875   37.3923 C   0  0  0  0  0  0  0  0  0  0  0  0
  -10.7270   -0.1074   37.0447 C   0  0  0  0  0  0  0  0  0  0  0  0
  -10.6763   -2.6494   36.9415 C   0  0  0  0  0  0  0  0  0  0  0  0
  -10.0805   -3.6505   36.3228 N   0  0  0  0  0  0  0  0  0  0  0  0
  -10.8958   -4.7969   35.9163 C   0  0  0  0  0  0  0  0  0  0  0  0
  -10.2321   -6.0708   34.6562 C   0  0  0  0  0  0  0  0  0  0  0  0
   -9.4379   -7.6318   33.8878 N   0  0  0  0  0  0  0  0  0  0  0  0
   -8.6386   -6.7294   33.2800 C   0  0  0  0  0  0  0  0  0  0  0  0
  -10.6252   -8.6064   33.2551 C   0  0  0  0  0  0  0  0  0  0  0  0
  -11.0776   -8.6440   32.1693 O   0  0  0  0  0  0  0  0  0  0  0  0
  -11.5821   -9.8043   34.4980 C   0  0  0  0  0  0  0  0  0  0  0  0
  -13.1889  -10.4018   34.4429 C   0  0  0  0  0  0  0  0  0  0  0  0
  -13.8184  -11.7394   35.5293 S   0  0  0  0  0  0  0  0  0  0  0  0
  -14.8568  -12.8241   34.3973 C   0  0  0  0  0  0  0  0  0  0  0  0
  -14.7450  -14.3468   34.6715 C   0  0  0  0  0  0  0  0  0  0  0  0
  -15.7416  -15.0197   35.3869 C   0  0  0  0  0  0  0  0  0  0  0  0
  -15.5816  -16.3808   35.7146 C   0  0  0  0  0  0  0  0  0  0  0  0
  -14.4474  -17.0689   35.3068 C   0  0  0  0  0  0  0  0  0  0  0  0
  -13.4894  -16.3463   34.6275 C   0  0  0  0  0  0  0  0  0  0  0  0
  -13.5906  -15.0106   34.3455 N   0  0  0  0  0  0  0  0  0  0  0  0
  -12.1682   -4.3903   36.3254 C   0  0  0  0  0  0  0  0  0  0  0  0
  -12.3137   -2.9349   37.2255 S   0  0  0  0  0  0  0  0  0  0  0  0
   -8.5520   -1.0221   40.3557 H   0  0  0  0  0  0  0  0  0  0  0  0
   -8.5157    0.1270   39.0019 H   0  0  0  0  0  0  0  0  0  0  0  0
   -7.7374   -1.4825   38.8472 H   0  0  0  0  0  0  0  0  0  0  0  0
   -8.9957   -1.3654   36.8964 H   0  0  0  0  0  0  0  0  0  0  0  0
  -11.6489   -0.0077   37.6285 H   0  0  0  0  0  0  0  0  0  0  0  0
  -10.1176    0.7698   37.2869 H   0  0  0  0  0  0  0  0  0  0  0  0
  -10.9813   -0.0643   35.9818 H   0  0  0  0  0  0  0  0  0  0  0  0
   -9.3142   -5.8033   35.2741 H   0  0  0  0  0  0  0  0  0  0  0  0
  -11.0847   -6.6336   35.0021 H   0  0  0  0  0  0  0  0  0  0  0  0
   -8.8374   -6.8957   32.2673 H   0  0  0  0  0  0  0  0  0  0  0  0
   -7.6778   -7.1753   32.9979 H   0  0  0  0  0  0  0  0  0  0  0  0
   -7.9703   -6.2802   34.0199 H   0  0  0  0  0  0  0  0  0  0  0  0
  -12.0323   -8.9560   34.9462 H   0  0  0  0  0  0  0  0  0  0  0  0
  -11.0383  -10.2532   35.3390 H   0  0  0  0  0  0  0  0  0  0  0  0
  -13.5610  -10.5863   33.4556 H   0  0  0  0  0  0  0  0  0  0  0  0
  -13.8346   -9.5832   34.7905 H   0  0  0  0  0  0  0  0  0  0  0  0
  -15.8972  -12.5143   34.5462 H   0  0  0  0  0  0  0  0  0  0  0  0
  -14.6329  -12.6292   33.3518 H   0  0  0  0  0  0  0  0  0  0  0  0
  -16.6361  -14.4927   35.7080 H   0  0  0  0  0  0  0  0  0  0  0  0
  -16.3561  -16.8918   36.2819 H   0  0  0  0  0  0  0  0  0  0  0  0
  -14.2940  -18.1137   35.5516 H   0  0  0  0  0  0  0  0  0  0  0  0
  -12.5433  -16.8029   34.3731 H   0  0  0  0  0  0  0  0  0  0  0  0
  -13.1245   -4.8754   36.2850 H   0  0  0  0  0  0  0  0  0  0  0  0
  1  2  1  0
  2  3  1  0
  3  4  1  0
  3  5  1  0
  5  6  2  0
  6  7  1  0
  7  8  1  0
  8  9  1  0
  9 10  1  0
  9 11  1  0
 11 12  2  0
 11 13  1  0
 13 14  1  0
 14 15  1  0
 15 16  1  0
 16 17  1  0
 17 18  2  0
 18 19  1  0
 19 20  2  0
 20 21  1  0
 21 22  2  0
  7 23  2  0
 23 24  1  0
 24  5  1  0
 22 17  1  0
  1 25  1  0
  1 26  1  0
  1 27  1  0
  3 28  1  0
  4 29  1  0
  4 30  1  0
  4 31  1  0
  8 32  1  0
  8 33  1  0
 10 34  1  0
 10 35  1  0
 10 36  1  0
 13 37  1  0
 13 38  1  0
 14 39  1  0
 14 40  1  0
 16 41  1  0
 16 42  1  0
 18 43  1  0
 19 44  1  0
 20 45  1  0
 21 46  1  0
 23 47  1  0
M  END
>  <Energy>  (1242) 
461.37552688148656

>  <compound_id>  (1242) 
19145

>  <target_id>  (1242) 
1

>  <reference_id>  (1242) 
7

>  <inspiration_ids>  (1242) 
[7, 82]

>  <energy_score>  (1242) 
327.0179300085256

>  <distance_score>  (1242) 
8.132002243388905

>  <path>  (1242) 
/opt/xchem-fragalysis-2/maxwin/BulkDock/SCRATCH/511023/C19145-P7/C19145-P7.minimised.mol

>  <scratch_subdir>  (1242) 
/opt/xchem-fragalysis-2/maxwin/BulkDock/SCRATCH/511023/C19145-P7

>  <fragmenstein_runtime>  (1242) 
18.571943044662476

>  <fragmenstein_outcome>  (1242) 
too moved

>  <fragmenstein_mode>  (1242) 
expansion

>  <fragmenstein_error>  (1242) 


$$$$
C19145-P82
     RDKit          3D

 47 48  0  0  0  0  0  0  0  0999 V2000
  -12.2161   -5.8170   43.4604 C   0  0  0  0  0  0  0  0  0  0  0  0
  -11.4526   -5.5820   42.2863 O   0  0  0  0  0  0  0  0  0  0  0  0
  -12.0487   -6.0265   41.0495 C   0  0  0  0  0  0  0  0  0  0  0  0
  -13.4077   -5.3680   40.8232 C   0  0  0  0  0  0  0  0  0  0  0  0
  -12.0317   -7.5455   40.9831 C   0  0  0  0  0  0  0  0  0  0  0  0
  -11.2025   -8.3165   41.6632 N   0  0  0  0  0  0  0  0  0  0  0  0
  -11.3637   -9.6643   41.3340 C   0  0  0  0  0  0  0  0  0  0  0  0
  -10.4755  -10.6730   42.0790 C   0  0  0  0  0  0  0  0  0  0  0  0
  -10.9640  -12.0100   42.7362 N   0  0  0  0  0  0  0  0  0  0  0  0
  -11.9290  -11.0867   43.3904 C   0  0  0  0  0  0  0  0  0  0  0  0
  -11.1635  -13.0161   41.7249 C   0  0  0  0  0  0  0  0  0  0  0  0
  -12.1423  -13.3007   41.0903 O   0  0  0  0  0  0  0  0  0  0  0  0
   -9.8481  -13.8253   41.6330 C   0  0  0  0  0  0  0  0  0  0  0  0
   -9.7146  -14.9474   40.5925 C   0  0  0  0  0  0  0  0  0  0  0  0
  -10.8220  -16.4064   40.8137 S   0  0  0  0  0  0  0  0  0  0  0  0
  -10.1609  -17.5719   39.5500 C   0  0  0  0  0  0  0  0  0  0  0  0
  -10.9893  -17.7439   38.2810 C   0  0  0  0  0  0  0  0  0  0  0  0
  -12.2988  -18.2164   38.3054 C   0  0  0  0  0  0  0  0  0  0  0  0
  -12.9853  -18.4100   37.0994 C   0  0  0  0  0  0  0  0  0  0  0  0
  -12.3487  -18.1637   35.8936 C   0  0  0  0  0  0  0  0  0  0  0  0
  -11.0571  -17.6849   35.9488 C   0  0  0  0  0  0  0  0  0  0  0  0
  -10.3729  -17.4617   37.1044 N   0  0  0  0  0  0  0  0  0  0  0  0
  -12.3069   -9.8876   40.3510 C   0  0  0  0  0  0  0  0  0  0  0  0
  -13.1219   -8.4292   39.9838 S   0  0  0  0  0  0  0  0  0  0  0  0
  -13.0847   -5.1536   43.4937 H   0  0  0  0  0  0  0  0  0  0  0  0
  -11.5862   -5.5843   44.3238 H   0  0  0  0  0  0  0  0  0  0  0  0
  -12.5358   -6.8591   43.5430 H   0  0  0  0  0  0  0  0  0  0  0  0
  -11.3700   -5.6716   40.2647 H   0  0  0  0  0  0  0  0  0  0  0  0
  -14.1741   -5.7743   41.4925 H   0  0  0  0  0  0  0  0  0  0  0  0
  -13.3475   -4.2914   41.0169 H   0  0  0  0  0  0  0  0  0  0  0  0
  -13.7569   -5.5061   39.7952 H   0  0  0  0  0  0  0  0  0  0  0  0
   -9.7545  -10.9973   41.3134 H   0  0  0  0  0  0  0  0  0  0  0  0
   -9.8382  -10.1516   42.8137 H   0  0  0  0  0  0  0  0  0  0  0  0
  -11.5170  -10.2576   43.9852 H   0  0  0  0  0  0  0  0  0  0  0  0
  -12.3684  -11.7313   44.1679 H   0  0  0  0  0  0  0  0  0  0  0  0
  -12.8150  -10.8600   42.7863 H   0  0  0  0  0  0  0  0  0  0  0  0
   -9.0355  -13.1140   41.4405 H   0  0  0  0  0  0  0  0  0  0  0  0
   -9.6632  -14.2505   42.6287 H   0  0  0  0  0  0  0  0  0  0  0  0
   -8.6929  -15.3336   40.6660 H   0  0  0  0  0  0  0  0  0  0  0  0
   -9.8220  -14.5317   39.5912 H   0  0  0  0  0  0  0  0  0  0  0  0
   -9.1412  -17.2709   39.2864 H   0  0  0  0  0  0  0  0  0  0  0  0
  -10.0821  -18.5548   40.0284 H   0  0  0  0  0  0  0  0  0  0  0  0
  -12.7913  -18.4354   39.2488 H   0  0  0  0  0  0  0  0  0  0  0  0
  -14.0124  -18.7650   37.1117 H   0  0  0  0  0  0  0  0  0  0  0  0
  -12.8431  -18.3115   34.9419 H   0  0  0  0  0  0  0  0  0  0  0  0
  -10.5163  -17.4364   35.0380 H   0  0  0  0  0  0  0  0  0  0  0  0
  -12.5996  -10.8272   39.8986 H   0  0  0  0  0  0  0  0  0  0  0  0
  1  2  1  0
  2  3  1  0
  3  4  1  0
  3  5  1  0
  5  6  2  0
  6  7  1  0
  7  8  1  0
  8  9  1  0
  9 10  1  0
  9 11  1  0
 11 12  2  0
 11 13  1  0
 13 14  1  0
 14 15  1  0
 15 16  1  0
 16 17  1  0
 17 18  2  0
 18 19  1  0
 19 20  2  0
 20 21  1  0
 21 22  2  0
  7 23  2  0
 23 24  1  0
 24  5  1  0
 22 17  1  0
  1 25  1  0
  1 26  1  0
  1 27  1  0
  3 28  1  0
  4 29  1  0
  4 30  1  0
  4 31  1  0
  8 32  1  0
  8 33  1  0
 10 34  1  0
 10 35  1  0
 10 36  1  0
 13 37  1  0
 13 38  1  0
 14 39  1  0
 14 40  1  0
 16 41  1  0
 16 42  1  0
 18 43  1  0
 19 44  1  0
 20 45  1  0
 21 46  1  0
 23 47  1  0
M  END
>  <Energy>  (1243) 
149.92707676478838

>  <compound_id>  (1243) 
19145

>  <target_id>  (1243) 
1

>  <reference_id>  (1243) 
82

>  <inspiration_ids>  (1243) 
[7, 82]

>  <energy_score>  (1243) 
15.569479891816172

>  <distance_score>  (1243) 
9.048322182144485

>  <path>  (1243) 
/opt/xchem-fragalysis-2/maxwin/BulkDock/SCRATCH/511023/C19145-P82/C19145-P82.minimised.mol

>  <scratch_subdir>  (1243) 
/opt/xchem-fragalysis-2/maxwin/BulkDock/SCRATCH/511023/C19145-P82

>  <fragmenstein_runtime>  (1243) 
23.97181224822998

>  <fragmenstein_outcome>  (1243) 
too moved

>  <fragmenstein_mode>  (1243) 
expansion

>  <fragmenstein_error>  (1243) 


$$$$
C47143-P7
     RDKit          3D

 25 26  0  0  0  0  0  0  0  0999 V2000
  -16.1252  -13.7712   34.9544 C   0  0  0  0  0  0  0  0  0  0  0  0
  -14.6659  -13.5050   34.5970 C   0  0  0  0  0  0  0  0  0  0  0  0
  -13.8271  -14.8256   34.9106 O   0  0  0  0  0  0  0  0  0  0  0  0
  -14.0088  -16.1040   34.0609 C   0  0  0  0  0  0  0  0  0  0  0  0
  -13.7185  -17.6045   34.6118 C   0  0  0  0  0  0  0  0  0  0  0  0
  -14.5423  -18.7377   34.6956 C   0  0  0  0  0  0  0  0  0  0  0  0
  -13.6952  -19.8688   34.5802 C   0  0  0  0  0  0  0  0  0  0  0  0
  -12.4230  -19.5030   34.5939 N   0  0  0  0  0  0  0  0  0  0  0  0
  -12.4281  -18.1030   34.6390 O   0  0  0  0  0  0  0  0  0  0  0  0
  -14.2230  -11.9517   35.3022 C   0  0  0  0  0  0  0  0  0  0  0  0
  -13.6375  -10.9384   34.6651 N   0  0  0  0  0  0  0  0  0  0  0  0
  -13.6871   -9.8495   35.4919 C   0  0  0  0  0  0  0  0  0  0  0  0
  -14.3187  -10.1020   36.6631 C   0  0  0  0  0  0  0  0  0  0  0  0
  -14.6791  -11.4210   36.5268 N   0  0  0  0  0  0  0  0  0  0  0  0
  -16.7492  -12.8933   34.7592 H   0  0  0  0  0  0  0  0  0  0  0  0
  -16.2193  -14.0346   36.0131 H   0  0  0  0  0  0  0  0  0  0  0  0
  -16.5328  -14.6076   34.3811 H   0  0  0  0  0  0  0  0  0  0  0  0
  -14.5435  -13.3211   33.5341 H   0  0  0  0  0  0  0  0  0  0  0  0
  -15.0711  -16.0835   33.8217 H   0  0  0  0  0  0  0  0  0  0  0  0
  -13.3903  -15.9334   33.1822 H   0  0  0  0  0  0  0  0  0  0  0  0
  -15.6220  -18.7457   34.6703 H   0  0  0  0  0  0  0  0  0  0  0  0
  -13.9530  -20.9116   34.4595 H   0  0  0  0  0  0  0  0  0  0  0  0
  -13.2509   -8.9386   35.2101 H   0  0  0  0  0  0  0  0  0  0  0  0
  -14.5401   -9.5177   37.5438 H   0  0  0  0  0  0  0  0  0  0  0  0
  -15.1988  -11.9487   37.2101 H   0  0  0  0  0  0  0  0  0  0  0  0
  1  2  1  0
  2  3  1  0
  3  4  1  0
  4  5  1  0
  5  6  2  0
  6  7  1  0
  7  8  2  0
  8  9  1  0
  2 10  1  0
 10 11  2  0
 11 12  1  0
 12 13  2  0
 13 14  1  0
  9  5  1  0
 14 10  1  0
  1 15  1  0
  1 16  1  0
  1 17  1  0
  2 18  1  0
  4 19  1  0
  4 20  1  0
  6 21  1  0
  7 22  1  0
 12 23  1  0
 13 24  1  0
 14 25  1  0
M  END
>  <Energy>  (1244) 
86.994973972772286

>  <compound_id>  (1244) 
47143

>  <target_id>  (1244) 
1

>  <reference_id>  (1244) 
7

>  <inspiration_ids>  (1244) 
[7, 82]

>  <energy_score>  (1244) 
40.50023255210226

>  <distance_score>  (1244) 
9.233401574811344

>  <path>  (1244) 
/opt/xchem-fragalysis-2/maxwin/BulkDock/SCRATCH/511023/C47143-P7/C47143-P7.minimised.mol

>  <scratch_subdir>  (1244) 
/opt/xchem-fragalysis-2/maxwin/BulkDock/SCRATCH/511023/C47143-P7

>  <fragmenstein_runtime>  (1244) 
3.8522908687591553

>  <fragmenstein_outcome>  (1244) 
too moved

>  <fragmenstein_mode>  (1244) 
expansion

>  <fragmenstein_error>  (1244) 


$$$$
C47143-P82
     RDKit          3D

 25 26  0  0  0  0  0  0  0  0999 V2000
  -16.4254  -15.8792   36.5904 C   0  0  0  0  0  0  0  0  0  0  0  0
  -15.1162  -15.1180   36.7769 C   0  0  0  0  0  0  0  0  0  0  0  0
  -13.9586  -15.8514   36.3270 O   0  0  0  0  0  0  0  0  0  0  0  0
  -13.9502  -16.2696   34.9561 C   0  0  0  0  0  0  0  0  0  0  0  0
  -13.6227  -17.7212   34.9157 C   0  0  0  0  0  0  0  0  0  0  0  0
  -12.4698  -18.4561   35.0673 C   0  0  0  0  0  0  0  0  0  0  0  0
  -12.8342  -19.7577   34.6887 C   0  0  0  0  0  0  0  0  0  0  0  0
  -14.1326  -19.8419   34.3858 N   0  0  0  0  0  0  0  0  0  0  0  0
  -14.6317  -18.5622   34.5494 O   0  0  0  0  0  0  0  0  0  0  0  0
  -15.1688  -13.7247   36.1967 C   0  0  0  0  0  0  0  0  0  0  0  0
  -15.2164  -13.3878   34.9246 N   0  0  0  0  0  0  0  0  0  0  0  0
  -15.3175  -12.0217   34.8950 C   0  0  0  0  0  0  0  0  0  0  0  0
  -15.3666  -11.5103   36.1689 C   0  0  0  0  0  0  0  0  0  0  0  0
  -15.2349  -12.5954   36.9859 N   0  0  0  0  0  0  0  0  0  0  0  0
  -16.7319  -15.9329   35.5408 H   0  0  0  0  0  0  0  0  0  0  0  0
  -17.2394  -15.3906   37.1369 H   0  0  0  0  0  0  0  0  0  0  0  0
  -16.3276  -16.9076   36.9537 H   0  0  0  0  0  0  0  0  0  0  0  0
  -14.9639  -15.0174   37.8592 H   0  0  0  0  0  0  0  0  0  0  0  0
  -13.1684  -15.7031   34.4403 H   0  0  0  0  0  0  0  0  0  0  0  0
  -14.8941  -16.0699   34.4427 H   0  0  0  0  0  0  0  0  0  0  0  0
  -11.4920  -18.0773   35.3211 H   0  0  0  0  0  0  0  0  0  0  0  0
  -12.2211  -20.6433   34.6077 H   0  0  0  0  0  0  0  0  0  0  0  0
  -15.3517  -11.5045   33.9445 H   0  0  0  0  0  0  0  0  0  0  0  0
  -15.4362  -10.5149   36.5708 H   0  0  0  0  0  0  0  0  0  0  0  0
  -15.1325  -12.5767   37.9902 H   0  0  0  0  0  0  0  0  0  0  0  0
  1  2  1  0
  2  3  1  0
  3  4  1  0
  4  5  1  0
  5  6  2  0
  6  7  1  0
  7  8  2  0
  8  9  1  0
  2 10  1  0
 10 11  2  0
 11 12  1  0
 12 13  2  0
 13 14  1  0
  9  5  1  0
 14 10  1  0
  1 15  1  0
  1 16  1  0
  1 17  1  0
  2 18  1  0
  4 19  1  0
  4 20  1  0
  6 21  1  0
  7 22  1  0
 12 23  1  0
 13 24  1  0
 14 25  1  0
M  END
>  <Energy>  (1245) 
17.88079914352917

>  <compound_id>  (1245) 
47143

>  <target_id>  (1245) 
1

>  <reference_id>  (1245) 
82

>  <inspiration_ids>  (1245) 
[7, 82]

>  <energy_score>  (1245) 
-24.76501262724628

>  <distance_score>  (1245) 
10.225269064446636

>  <path>  (1245) 
/opt/xchem-fragalysis-2/maxwin/BulkDock/SCRATCH/511023/C47143-P82/C47143-P82.minimised.mol

>  <scratch_subdir>  (1245) 
/opt/xchem-fragalysis-2/maxwin/BulkDock/SCRATCH/511023/C47143-P82

>  <fragmenstein_runtime>  (1245) 
6.670970916748047

>  <fragmenstein_outcome>  (1245) 
too moved

>  <fragmenstein_mode>  (1245) 
expansion

>  <fragmenstein_error>  (1245) 


$$$$
C19147-P7
     RDKit          3D

 43 44  0  0  0  0  0  0  0  0999 V2000
  -15.8710   -4.2125   40.3399 C   0  0  0  0  0  0  0  0  0  0  0  0
  -15.6248   -4.5227   38.9795 O   0  0  0  0  0  0  0  0  0  0  0  0
  -15.7075   -3.3997   38.0994 C   0  0  0  0  0  0  0  0  0  0  0  0
  -14.4571   -2.5248   38.1265 C   0  0  0  0  0  0  0  0  0  0  0  0
  -13.3663   -3.0000   37.2975 N   0  0  0  0  0  0  0  0  0  0  0  0
  -12.3673   -2.2241   36.7963 C   0  0  0  0  0  0  0  0  0  0  0  0
  -11.5381   -3.0840   36.1232 C   0  0  0  0  0  0  0  0  0  0  0  0
  -12.1110   -4.3942   36.2596 C   0  0  0  0  0  0  0  0  0  0  0  0
  -11.4784   -5.7274   35.7413 C   0  0  0  0  0  0  0  0  0  0  0  0
  -10.3384   -5.6452   35.3782 O   0  0  0  0  0  0  0  0  0  0  0  0
  -12.0892   -7.3445   35.7293 O   0  0  0  0  0  0  0  0  0  0  0  0
  -13.5833   -8.4402   36.2559 C   0  0  0  0  0  0  0  0  0  0  0  0
  -13.9729   -9.6908   35.3486 C   0  0  0  0  0  0  0  0  0  0  0  0
  -13.4329  -10.9620   35.4871 C   0  0  0  0  0  0  0  0  0  0  0  0
  -14.0926  -12.0554   34.8887 C   0  0  0  0  0  0  0  0  0  0  0  0
  -15.2093  -11.8848   34.0977 C   0  0  0  0  0  0  0  0  0  0  0  0
  -15.6380  -10.5961   33.9389 C   0  0  0  0  0  0  0  0  0  0  0  0
  -15.0734   -9.5321   34.5615 N   0  0  0  0  0  0  0  0  0  0  0  0
  -13.7442   -8.7523   37.8592 C   0  0  0  0  0  0  0  0  0  0  0  0
  -14.3599  -10.1110   38.2421 C   0  0  0  0  0  0  0  0  0  0  0  0
  -14.6831   -7.7087   38.5129 C   0  0  0  0  0  0  0  0  0  0  0  0
  -13.2211   -4.3056   37.0234 N   0  0  0  0  0  0  0  0  0  0  0  0
  -16.8711   -3.7855   40.4618 H   0  0  0  0  0  0  0  0  0  0  0  0
  -15.8199   -5.1401   40.9167 H   0  0  0  0  0  0  0  0  0  0  0  0
  -15.1190   -3.5238   40.7328 H   0  0  0  0  0  0  0  0  0  0  0  0
  -16.5871   -2.8029   38.3694 H   0  0  0  0  0  0  0  0  0  0  0  0
  -15.8876   -3.7912   37.0934 H   0  0  0  0  0  0  0  0  0  0  0  0
  -14.7134   -1.5276   37.7519 H   0  0  0  0  0  0  0  0  0  0  0  0
  -14.0462   -2.4211   39.1350 H   0  0  0  0  0  0  0  0  0  0  0  0
  -12.3254   -1.1573   36.9625 H   0  0  0  0  0  0  0  0  0  0  0  0
  -10.6361   -2.8020   35.6061 H   0  0  0  0  0  0  0  0  0  0  0  0
  -14.4379   -7.7534   36.1389 H   0  0  0  0  0  0  0  0  0  0  0  0
  -12.5654  -11.1181   36.1198 H   0  0  0  0  0  0  0  0  0  0  0  0
  -13.7408  -13.0586   35.0315 H   0  0  0  0  0  0  0  0  0  0  0  0
  -15.7300  -12.7014   33.6207 H   0  0  0  0  0  0  0  0  0  0  0  0
  -16.4886  -10.3561   33.3073 H   0  0  0  0  0  0  0  0  0  0  0  0
  -12.7861   -8.7153   38.3764 H   0  0  0  0  0  0  0  0  0  0  0  0
  -13.6637  -10.9316   38.0637 H   0  0  0  0  0  0  0  0  0  0  0  0
  -14.5822  -10.1460   39.3158 H   0  0  0  0  0  0  0  0  0  0  0  0
  -15.2990  -10.3014   37.7127 H   0  0  0  0  0  0  0  0  0  0  0  0
  -15.7149   -7.8395   38.1662 H   0  0  0  0  0  0  0  0  0  0  0  0
  -14.3974   -6.6824   38.2898 H   0  0  0  0  0  0  0  0  0  0  0  0
  -14.6809   -7.8160   39.6034 H   0  0  0  0  0  0  0  0  0  0  0  0
  1  2  1  0
  2  3  1  0
  3  4  1  0
  4  5  1  0
  5  6  1  0
  6  7  2  0
  7  8  1  0
  8  9  1  0
  9 10  2  0
  9 11  1  0
 11 12  1  0
 12 13  1  0
 13 14  2  0
 14 15  1  0
 15 16  2  0
 16 17  1  0
 17 18  2  0
 12 19  1  0
 19 20  1  0
 19 21  1  0
  8 22  2  0
 22  5  1  0
 18 13  1  0
  1 23  1  0
  1 24  1  0
  1 25  1  0
  3 26  1  0
  3 27  1  0
  4 28  1  0
  4 29  1  0
  6 30  1  0
  7 31  1  0
 12 32  1  0
 14 33  1  0
 15 34  1  0
 16 35  1  0
 17 36  1  0
 19 37  1  0
 20 38  1  0
 20 39  1  0
 20 40  1  0
 21 41  1  0
 21 42  1  0
 21 43  1  0
M  END
>  <Energy>  (1246) 
252.30902393319718

>  <compound_id>  (1246) 
19147

>  <target_id>  (1246) 
1

>  <reference_id>  (1246) 
7

>  <inspiration_ids>  (1246) 
[7, 82]

>  <energy_score>  (1246) 
128.08048787948337

>  <distance_score>  (1246) 
9.702283449022202

>  <path>  (1246) 
/opt/xchem-fragalysis-2/maxwin/BulkDock/SCRATCH/511023/C19147-P7/C19147-P7.minimised.mol

>  <scratch_subdir>  (1246) 
/opt/xchem-fragalysis-2/maxwin/BulkDock/SCRATCH/511023/C19147-P7

>  <fragmenstein_runtime>  (1246) 
13.918546915054321

>  <fragmenstein_outcome>  (1246) 
too moved

>  <fragmenstein_mode>  (1246) 
expansion

>  <fragmenstein_error>  (1246) 


$$$$
C19147-P82
     RDKit          3D

 43 44  0  0  0  0  0  0  0  0999 V2000
  -13.2256   -3.6233   37.6853 C   0  0  0  0  0  0  0  0  0  0  0  0
  -13.1286   -4.4810   36.5458 O   0  0  0  0  0  0  0  0  0  0  0  0
  -11.9027   -4.3104   35.8169 C   0  0  0  0  0  0  0  0  0  0  0  0
  -11.2610   -5.6860   35.1633 C   0  0  0  0  0  0  0  0  0  0  0  0
  -11.0721   -6.8409   34.2266 N   0  0  0  0  0  0  0  0  0  0  0  0
  -11.8479   -7.9073   35.1135 C   0  0  0  0  0  0  0  0  0  0  0  0
  -11.2212   -9.4590   35.0189 C   0  0  0  0  0  0  0  0  0  0  0  0
  -10.0371   -9.4802   34.2873 C   0  0  0  0  0  0  0  0  0  0  0  0
   -8.6715  -11.0979   34.4671 C   0  0  0  0  0  0  0  0  0  0  0  0
   -7.7841  -10.8898   35.2917 O   0  0  0  0  0  0  0  0  0  0  0  0
   -8.8641  -12.5729   33.2965 O   0  0  0  0  0  0  0  0  0  0  0  0
   -8.9562  -14.5166   32.7154 C   0  0  0  0  0  0  0  0  0  0  0  0
  -10.3850  -15.4454   33.4720 C   0  0  0  0  0  0  0  0  0  0  0  0
  -11.7999  -15.2459   33.3825 C   0  0  0  0  0  0  0  0  0  0  0  0
  -12.7612  -15.9545   34.2115 C   0  0  0  0  0  0  0  0  0  0  0  0
  -12.3604  -16.9707   35.0582 C   0  0  0  0  0  0  0  0  0  0  0  0
  -11.0115  -17.2092   35.0646 C   0  0  0  0  0  0  0  0  0  0  0  0
  -10.0891  -16.4836   34.3276 N   0  0  0  0  0  0  0  0  0  0  0  0
   -7.6728  -15.7273   33.6533 C   0  0  0  0  0  0  0  0  0  0  0  0
   -6.7780  -16.8516   33.0804 C   0  0  0  0  0  0  0  0  0  0  0  0
   -7.9074  -16.3424   35.1480 C   0  0  0  0  0  0  0  0  0  0  0  0
   -9.8814   -7.9587   33.4974 N   0  0  0  0  0  0  0  0  0  0  0  0
  -12.5674   -3.9815   38.4818 H   0  0  0  0  0  0  0  0  0  0  0  0
  -12.9671   -2.5898   37.4425 H   0  0  0  0  0  0  0  0  0  0  0  0
  -14.2560   -3.6567   38.0488 H   0  0  0  0  0  0  0  0  0  0  0  0
  -11.1651   -3.8330   36.4748 H   0  0  0  0  0  0  0  0  0  0  0  0
  -12.0068   -3.5677   35.0279 H   0  0  0  0  0  0  0  0  0  0  0  0
  -10.2342   -5.5419   35.3847 H   0  0  0  0  0  0  0  0  0  0  0  0
  -12.0946   -5.4531   34.5222 H   0  0  0  0  0  0  0  0  0  0  0  0
  -12.7688   -7.4674   35.4356 H   0  0  0  0  0  0  0  0  0  0  0  0
  -11.6134  -10.3085   35.5955 H   0  0  0  0  0  0  0  0  0  0  0  0
   -8.6505  -14.5747   31.7055 H   0  0  0  0  0  0  0  0  0  0  0  0
  -12.2736  -14.6490   32.6298 H   0  0  0  0  0  0  0  0  0  0  0  0
  -13.8215  -15.7635   34.1194 H   0  0  0  0  0  0  0  0  0  0  0  0
  -13.0506  -17.5473   35.6560 H   0  0  0  0  0  0  0  0  0  0  0  0
  -10.5873  -17.9622   35.7128 H   0  0  0  0  0  0  0  0  0  0  0  0
   -6.9528  -15.0318   34.0389 H   0  0  0  0  0  0  0  0  0  0  0  0
   -5.8729  -16.4977   32.5894 H   0  0  0  0  0  0  0  0  0  0  0  0
   -6.4366  -17.4711   33.8957 H   0  0  0  0  0  0  0  0  0  0  0  0
   -7.2268  -17.5962   32.4533 H   0  0  0  0  0  0  0  0  0  0  0  0
   -8.2231  -17.3925   35.1165 H   0  0  0  0  0  0  0  0  0  0  0  0
   -8.5352  -15.7735   35.8311 H   0  0  0  0  0  0  0  0  0  0  0  0
   -6.9633  -16.3882   35.6761 H   0  0  0  0  0  0  0  0  0  0  0  0
  1  2  1  0
  2  3  1  0
  3  4  1  0
  4  5  1  0
  5  6  1  0
  6  7  2  0
  7  8  1  0
  8  9  1  0
  9 10  2  0
  9 11  1  0
 11 12  1  0
 12 13  1  0
 13 14  2  0
 14 15  1  0
 15 16  2  0
 16 17  1  0
 17 18  2  0
 12 19  1  0
 19 20  1  0
 19 21  1  0
  8 22  2  0
 22  5  1  0
 18 13  1  0
  1 23  1  0
  1 24  1  0
  1 25  1  0
  3 26  1  0
  3 27  1  0
  4 28  1  0
  4 29  1  0
  6 30  1  0
  7 31  1  0
 12 32  1  0
 14 33  1  0
 15 34  1  0
 16 35  1  0
 17 36  1  0
 19 37  1  0
 20 38  1  0
 20 39  1  0
 20 40  1  0
 21 41  1  0
 21 42  1  0
 21 43  1  0
M  END
>  <Energy>  (1247) 
883.08278926279945

>  <compound_id>  (1247) 
19147

>  <target_id>  (1247) 
1

>  <reference_id>  (1247) 
82

>  <inspiration_ids>  (1247) 
[7, 82]

>  <energy_score>  (1247) 
758.8542532090755

>  <distance_score>  (1247) 
7.96444193124651

>  <path>  (1247) 
/opt/xchem-fragalysis-2/maxwin/BulkDock/SCRATCH/511023/C19147-P82/C19147-P82.minimised.mol

>  <scratch_subdir>  (1247) 
/opt/xchem-fragalysis-2/maxwin/BulkDock/SCRATCH/511023/C19147-P82

>  <fragmenstein_runtime>  (1247) 
9.898810148239136

>  <fragmenstein_outcome>  (1247) 
too moved

>  <fragmenstein_mode>  (1247) 
expansion

>  <fragmenstein_error>  (1247) 


$$$$
C19149-P7
     RDKit          3D

 43 44  0  0  0  0  0  0  0  0999 V2000
  -13.8374   -2.0218   38.4575 C   0  0  0  0  0  0  0  0  0  0  0  0
  -12.8955   -2.0381   37.3848 O   0  0  0  0  0  0  0  0  0  0  0  0
  -13.2698   -2.9425   36.3311 C   0  0  0  0  0  0  0  0  0  0  0  0
  -12.8700   -4.4198   36.6300 C   0  0  0  0  0  0  0  0  0  0  0  0
  -11.3771   -5.2497   36.0916 N   0  0  0  0  0  0  0  0  0  0  0  0
  -10.3711   -4.7062   36.7663 N   0  0  0  0  0  0  0  0  0  0  0  0
  -10.5979   -3.6285   36.0885 C   0  0  0  0  0  0  0  0  0  0  0  0
  -11.2138   -4.4519   34.9443 C   0  0  0  0  0  0  0  0  0  0  0  0
  -10.9076   -6.2477   34.7679 C   0  0  0  0  0  0  0  0  0  0  0  0
   -9.9269   -7.5593   33.5643 C   0  0  0  0  0  0  0  0  0  0  0  0
   -8.9419   -7.1069   32.9866 O   0  0  0  0  0  0  0  0  0  0  0  0
  -10.0716   -9.4878   33.2082 O   0  0  0  0  0  0  0  0  0  0  0  0
   -9.4388  -11.3913   32.4616 C   0  0  0  0  0  0  0  0  0  0  0  0
   -9.9025  -13.5354   32.9632 C   0  0  0  0  0  0  0  0  0  0  0  0
  -11.6633  -14.6714   32.7398 C   0  0  0  0  0  0  0  0  0  0  0  0
   -8.6758  -14.5863   32.3077 C   0  0  0  0  0  0  0  0  0  0  0  0
  -10.6349  -15.1555   33.9754 C   0  0  0  0  0  0  0  0  0  0  0  0
  -12.1588  -15.6563   34.5421 C   0  0  0  0  0  0  0  0  0  0  0  0
  -12.5341  -16.8760   35.0842 C   0  0  0  0  0  0  0  0  0  0  0  0
  -11.5475  -17.7791   34.9971 C   0  0  0  0  0  0  0  0  0  0  0  0
  -10.2875  -17.3462   34.4746 C   0  0  0  0  0  0  0  0  0  0  0  0
   -9.7891  -16.1627   34.1465 N   0  0  0  0  0  0  0  0  0  0  0  0
  -13.4543   -1.3549   39.2346 H   0  0  0  0  0  0  0  0  0  0  0  0
  -13.9713   -3.0177   38.8884 H   0  0  0  0  0  0  0  0  0  0  0  0
  -14.7982   -1.6308   38.1091 H   0  0  0  0  0  0  0  0  0  0  0  0
  -12.8647   -2.5234   35.4092 H   0  0  0  0  0  0  0  0  0  0  0  0
  -14.3597   -2.9365   36.2688 H   0  0  0  0  0  0  0  0  0  0  0  0
  -13.6732   -5.1442   36.5038 H   0  0  0  0  0  0  0  0  0  0  0  0
  -12.5925   -4.2574   37.6798 H   0  0  0  0  0  0  0  0  0  0  0  0
  -10.3642   -2.5864   36.2653 H   0  0  0  0  0  0  0  0  0  0  0  0
  -11.4144   -3.7154   34.1336 H   0  0  0  0  0  0  0  0  0  0  0  0
   -9.5964  -10.9448   31.5039 H   0  0  0  0  0  0  0  0  0  0  0  0
   -8.3582  -11.3367   32.5993 H   0  0  0  0  0  0  0  0  0  0  0  0
  -12.6060  -14.1704   33.0003 H   0  0  0  0  0  0  0  0  0  0  0  0
  -11.3044  -15.4741   32.0905 H   0  0  0  0  0  0  0  0  0  0  0  0
  -12.2924  -14.7317   31.7907 H   0  0  0  0  0  0  0  0  0  0  0  0
   -8.6007  -15.6055   32.6565 H   0  0  0  0  0  0  0  0  0  0  0  0
   -7.7599  -14.1164   32.6043 H   0  0  0  0  0  0  0  0  0  0  0  0
   -8.6343  -14.5502   31.2471 H   0  0  0  0  0  0  0  0  0  0  0  0
  -13.0563  -15.0391   34.4456 H   0  0  0  0  0  0  0  0  0  0  0  0
  -13.5408  -17.1245   35.3833 H   0  0  0  0  0  0  0  0  0  0  0  0
  -11.7981  -18.8245   35.1275 H   0  0  0  0  0  0  0  0  0  0  0  0
   -9.6261  -18.0502   33.9561 H   0  0  0  0  0  0  0  0  0  0  0  0
  1  2  1  0
  2  3  1  0
  3  4  1  0
  4  5  1  0
  5  6  1  0
  6  7  2  0
  7  8  1  0
  8  9  2  0
  9 10  1  0
 10 11  2  0
 10 12  1  0
 12 13  1  0
 13 14  1  0
 14 15  1  0
 14 16  1  0
 14 17  1  0
 17 18  2  0
 18 19  1  0
 19 20  2  0
 20 21  1  0
 21 22  2  0
  9  5  1  0
 22 17  1  0
  1 23  1  0
  1 24  1  0
  1 25  1  0
  3 26  1  0
  3 27  1  0
  4 28  1  0
  4 29  1  0
  7 30  1  0
  8 31  1  0
 13 32  1  0
 13 33  1  0
 15 34  1  0
 15 35  1  0
 15 36  1  0
 16 37  1  0
 16 38  1  0
 16 39  1  0
 18 40  1  0
 19 41  1  0
 20 42  1  0
 21 43  1  0
M  END
>  <Energy>  (1248) 
1466.3529182843615

>  <compound_id>  (1248) 
19149

>  <target_id>  (1248) 
1

>  <reference_id>  (1248) 
7

>  <inspiration_ids>  (1248) 
[7, 82]

>  <energy_score>  (1248) 
1398.8436947531868

>  <distance_score>  (1248) 
6.455369621266841

>  <path>  (1248) 
/opt/xchem-fragalysis-2/maxwin/BulkDock/SCRATCH/511023/C19149-P7/C19149-P7.minimised.mol

>  <scratch_subdir>  (1248) 
/opt/xchem-fragalysis-2/maxwin/BulkDock/SCRATCH/511023/C19149-P7

>  <fragmenstein_runtime>  (1248) 
9.187928676605225

>  <fragmenstein_outcome>  (1248) 
too moved

>  <fragmenstein_mode>  (1248) 
expansion

>  <fragmenstein_error>  (1248) 


$$$$
C19149-P82
     RDKit          3D

 43 44  0  0  0  0  0  0  0  0999 V2000
  -15.4730   -3.5415   37.9628 C   0  0  0  0  0  0  0  0  0  0  0  0
  -16.1441   -4.6854   38.4662 O   0  0  0  0  0  0  0  0  0  0  0  0
  -16.3283   -5.6973   37.4782 C   0  0  0  0  0  0  0  0  0  0  0  0
  -16.7128   -7.0326   38.1243 C   0  0  0  0  0  0  0  0  0  0  0  0
  -15.5983   -7.7644   38.7126 N   0  0  0  0  0  0  0  0  0  0  0  0
  -14.8067   -7.0922   39.5793 N   0  0  0  0  0  0  0  0  0  0  0  0
  -13.8718   -7.9657   39.9330 C   0  0  0  0  0  0  0  0  0  0  0  0
  -14.0607   -9.2047   39.3075 C   0  0  0  0  0  0  0  0  0  0  0  0
  -15.2075   -9.0854   38.5287 C   0  0  0  0  0  0  0  0  0  0  0  0
  -15.8293  -10.0942   37.6803 C   0  0  0  0  0  0  0  0  0  0  0  0
  -16.8883   -9.9715   37.0798 O   0  0  0  0  0  0  0  0  0  0  0  0
  -15.0263  -11.1906   37.5986 O   0  0  0  0  0  0  0  0  0  0  0  0
  -15.2912  -12.2507   36.6272 C   0  0  0  0  0  0  0  0  0  0  0  0
  -15.7168  -13.6073   37.3072 C   0  0  0  0  0  0  0  0  0  0  0  0
  -17.2624  -13.5674   37.3423 C   0  0  0  0  0  0  0  0  0  0  0  0
  -15.3034  -13.6032   38.8030 C   0  0  0  0  0  0  0  0  0  0  0  0
  -15.1825  -14.9120   36.5745 C   0  0  0  0  0  0  0  0  0  0  0  0
  -15.5168  -16.1878   37.0645 C   0  0  0  0  0  0  0  0  0  0  0  0
  -14.9835  -17.3500   36.4838 C   0  0  0  0  0  0  0  0  0  0  0  0
  -14.1050  -17.2427   35.4213 C   0  0  0  0  0  0  0  0  0  0  0  0
  -13.8258  -15.9690   34.9682 C   0  0  0  0  0  0  0  0  0  0  0  0
  -14.3523  -14.8179   35.4933 N   0  0  0  0  0  0  0  0  0  0  0  0
  -14.4590   -3.8022   37.6458 H   0  0  0  0  0  0  0  0  0  0  0  0
  -15.4053   -2.8008   38.7641 H   0  0  0  0  0  0  0  0  0  0  0  0
  -16.0328   -3.1051   37.1304 H   0  0  0  0  0  0  0  0  0  0  0  0
  -15.4370   -5.8167   36.8601 H   0  0  0  0  0  0  0  0  0  0  0  0
  -17.1473   -5.3705   36.8270 H   0  0  0  0  0  0  0  0  0  0  0  0
  -17.4375   -6.8836   38.9326 H   0  0  0  0  0  0  0  0  0  0  0  0
  -17.1676   -7.6650   37.3612 H   0  0  0  0  0  0  0  0  0  0  0  0
  -13.0922   -7.6608   40.6197 H   0  0  0  0  0  0  0  0  0  0  0  0
  -13.4445  -10.0898   39.4052 H   0  0  0  0  0  0  0  0  0  0  0  0
  -14.3714  -12.3613   36.0499 H   0  0  0  0  0  0  0  0  0  0  0  0
  -16.0348  -11.9180   35.8924 H   0  0  0  0  0  0  0  0  0  0  0  0
  -17.6711  -13.3875   36.3478 H   0  0  0  0  0  0  0  0  0  0  0  0
  -17.6953  -14.4827   37.7571 H   0  0  0  0  0  0  0  0  0  0  0  0
  -17.6271  -12.7363   37.9593 H   0  0  0  0  0  0  0  0  0  0  0  0
  -15.9706  -12.9739   39.4060 H   0  0  0  0  0  0  0  0  0  0  0  0
  -14.3159  -13.1724   38.9477 H   0  0  0  0  0  0  0  0  0  0  0  0
  -15.3181  -14.5981   39.2572 H   0  0  0  0  0  0  0  0  0  0  0  0
  -16.1806  -16.2965   37.9174 H   0  0  0  0  0  0  0  0  0  0  0  0
  -15.2438  -18.3259   36.8848 H   0  0  0  0  0  0  0  0  0  0  0  0
  -13.6407  -18.1126   34.9721 H   0  0  0  0  0  0  0  0  0  0  0  0
  -13.1299  -15.8293   34.1429 H   0  0  0  0  0  0  0  0  0  0  0  0
  1  2  1  0
  2  3  1  0
  3  4  1  0
  4  5  1  0
  5  6  1  0
  6  7  2  0
  7  8  1  0
  8  9  2  0
  9 10  1  0
 10 11  2  0
 10 12  1  0
 12 13  1  0
 13 14  1  0
 14 15  1  0
 14 16  1  0
 14 17  1  0
 17 18  2  0
 18 19  1  0
 19 20  2  0
 20 21  1  0
 21 22  2  0
  9  5  1  0
 22 17  1  0
  1 23  1  0
  1 24  1  0
  1 25  1  0
  3 26  1  0
  3 27  1  0
  4 28  1  0
  4 29  1  0
  7 30  1  0
  8 31  1  0
 13 32  1  0
 13 33  1  0
 15 34  1  0
 15 35  1  0
 15 36  1  0
 16 37  1  0
 16 38  1  0
 16 39  1  0
 18 40  1  0
 19 41  1  0
 20 42  1  0
 21 43  1  0
M  END
>  <Energy>  (1249) 
48.756399945383095

>  <compound_id>  (1249) 
19149

>  <target_id>  (1249) 
1

>  <reference_id>  (1249) 
82

>  <inspiration_ids>  (1249) 
[7, 82]

>  <energy_score>  (1249) 
-18.75282358578852

>  <distance_score>  (1249) 
8.568224548994783

>  <path>  (1249) 
/opt/xchem-fragalysis-2/maxwin/BulkDock/SCRATCH/511023/C19149-P82/C19149-P82.minimised.mol

>  <scratch_subdir>  (1249) 
/opt/xchem-fragalysis-2/maxwin/BulkDock/SCRATCH/511023/C19149-P82

>  <fragmenstein_runtime>  (1249) 
13.147338151931763

>  <fragmenstein_outcome>  (1249) 
too moved

>  <fragmenstein_mode>  (1249) 
expansion

>  <fragmenstein_error>  (1249) 


$$$$
C22022-P7
     RDKit          3D

 36 38  0  0  0  0  0  0  0  0999 V2000
  -14.9934   -3.6499   38.4468 C   0  0  0  0  0  0  0  0  0  0  0  0
  -16.0042   -4.3370   37.7229 O   0  0  0  0  0  0  0  0  0  0  0  0
  -15.5527   -5.5756   37.1620 C   0  0  0  0  0  0  0  0  0  0  0  0
  -15.7143   -6.7124   38.1610 C   0  0  0  0  0  0  0  0  0  0  0  0
  -15.2111   -7.9996   37.7187 N   0  0  0  0  0  0  0  0  0  0  0  0
  -14.1799   -8.6853   38.2853 C   0  0  0  0  0  0  0  0  0  0  0  0
  -14.1791   -9.9243   37.6900 C   0  0  0  0  0  0  0  0  0  0  0  0
  -15.3036   -9.9463   36.8206 C   0  0  0  0  0  0  0  0  0  0  0  0
  -15.7737  -11.0891   36.1394 N   0  0  0  0  0  0  0  0  0  0  0  0
  -15.1546  -12.3456   36.2436 N   0  0  0  0  0  0  0  0  0  0  0  0
  -15.8689  -13.1859   35.5443 C   0  0  0  0  0  0  0  0  0  0  0  0
  -15.5367  -14.6196   35.3211 C   0  0  0  0  0  0  0  0  0  0  0  0
  -16.0929  -15.6469   36.0848 C   0  0  0  0  0  0  0  0  0  0  0  0
  -15.5903  -16.9375   35.9165 C   0  0  0  0  0  0  0  0  0  0  0  0
  -14.5806  -17.2506   35.0716 N   0  0  0  0  0  0  0  0  0  0  0  0
  -14.0354  -16.2274   34.3811 C   0  0  0  0  0  0  0  0  0  0  0  0
  -14.5027  -14.9225   34.4382 C   0  0  0  0  0  0  0  0  0  0  0  0
  -17.0776  -12.5584   34.9381 C   0  0  0  0  0  0  0  0  0  0  0  0
  -16.9300  -11.1188   35.3576 C   0  0  0  0  0  0  0  0  0  0  0  0
  -17.7123  -10.2419   35.0193 O   0  0  0  0  0  0  0  0  0  0  0  0
  -15.8811   -8.7271   36.8020 N   0  0  0  0  0  0  0  0  0  0  0  0
  -14.1653   -3.3823   37.7833 H   0  0  0  0  0  0  0  0  0  0  0  0
  -15.4254   -2.7295   38.8489 H   0  0  0  0  0  0  0  0  0  0  0  0
  -14.6263   -4.2543   39.2807 H   0  0  0  0  0  0  0  0  0  0  0  0
  -16.1666   -5.7728   36.2765 H   0  0  0  0  0  0  0  0  0  0  0  0
  -14.5217   -5.4648   36.8270 H   0  0  0  0  0  0  0  0  0  0  0  0
  -16.7740   -6.8477   38.4105 H   0  0  0  0  0  0  0  0  0  0  0  0
  -15.2140   -6.4693   39.1052 H   0  0  0  0  0  0  0  0  0  0  0  0
  -13.5608   -8.2691   39.0682 H   0  0  0  0  0  0  0  0  0  0  0  0
  -13.5129  -10.7472   37.9149 H   0  0  0  0  0  0  0  0  0  0  0  0
  -16.8748  -15.4535   36.8112 H   0  0  0  0  0  0  0  0  0  0  0  0
  -15.9917  -17.7720   36.4868 H   0  0  0  0  0  0  0  0  0  0  0  0
  -13.1964  -16.4779   33.7466 H   0  0  0  0  0  0  0  0  0  0  0  0
  -14.0318  -14.1404   33.8547 H   0  0  0  0  0  0  0  0  0  0  0  0
  -17.0413  -12.6427   33.8537 H   0  0  0  0  0  0  0  0  0  0  0  0
  -17.9885  -12.9770   35.3679 H   0  0  0  0  0  0  0  0  0  0  0  0
  1  2  1  0
  2  3  1  0
  3  4  1  0
  4  5  1  0
  5  6  1  0
  6  7  2  0
  7  8  1  0
  8  9  1  0
  9 10  1  0
 10 11  2  0
 11 12  1  0
 12 13  2  0
 13 14  1  0
 14 15  2  0
 15 16  1  0
 16 17  2  0
 11 18  1  0
 18 19  1  0
 19 20  2  0
  8 21  2  0
 21  5  1  0
 19  9  1  0
 17 12  1  0
  1 22  1  0
  1 23  1  0
  1 24  1  0
  3 25  1  0
  3 26  1  0
  4 27  1  0
  4 28  1  0
  6 29  1  0
  7 30  1  0
 13 31  1  0
 14 32  1  0
 16 33  1  0
 17 34  1  0
 18 35  1  0
 18 36  1  0
M  END
>  <Energy>  (1250) 
65.323185947282738

>  <compound_id>  (1250) 
22022

>  <target_id>  (1250) 
1

>  <reference_id>  (1250) 
7

>  <inspiration_ids>  (1250) 
[7, 82]

>  <energy_score>  (1250) 
-13.824764428363551

>  <distance_score>  (1250) 
9.03976641212671

>  <path>  (1250) 
/opt/xchem-fragalysis-2/maxwin/BulkDock/SCRATCH/511023/C22022-P7/C22022-P7.minimised.mol

>  <scratch_subdir>  (1250) 
/opt/xchem-fragalysis-2/maxwin/BulkDock/SCRATCH/511023/C22022-P7

>  <fragmenstein_runtime>  (1250) 
13.91206955909729

>  <fragmenstein_outcome>  (1250) 
too moved

>  <fragmenstein_mode>  (1250) 
expansion

>  <fragmenstein_error>  (1250) 


$$$$
C22022-P82
     RDKit          3D

 36 38  0  0  0  0  0  0  0  0999 V2000
  -14.2987   -4.1618   38.7520 C   0  0  0  0  0  0  0  0  0  0  0  0
  -14.8787   -5.3622   38.2419 O   0  0  0  0  0  0  0  0  0  0  0  0
  -15.4687   -6.1439   39.2882 C   0  0  0  0  0  0  0  0  0  0  0  0
  -16.2943   -7.2957   38.7070 C   0  0  0  0  0  0  0  0  0  0  0  0
  -15.6629   -8.5903   38.4944 N   0  0  0  0  0  0  0  0  0  0  0  0
  -14.3947   -8.9984   38.7549 C   0  0  0  0  0  0  0  0  0  0  0  0
  -14.2896  -10.2601   38.2074 C   0  0  0  0  0  0  0  0  0  0  0  0
  -15.6100  -10.6542   37.8583 C   0  0  0  0  0  0  0  0  0  0  0  0
  -16.0268  -11.9582   37.4905 N   0  0  0  0  0  0  0  0  0  0  0  0
  -15.1714  -12.9359   36.9541 N   0  0  0  0  0  0  0  0  0  0  0  0
  -15.8231  -14.0692   36.9099 C   0  0  0  0  0  0  0  0  0  0  0  0
  -15.3012  -15.3761   36.3540 C   0  0  0  0  0  0  0  0  0  0  0  0
  -15.9025  -16.6076   36.6311 C   0  0  0  0  0  0  0  0  0  0  0  0
  -15.3685  -17.7671   36.0656 C   0  0  0  0  0  0  0  0  0  0  0  0
  -14.2880  -17.7889   35.2555 N   0  0  0  0  0  0  0  0  0  0  0  0
  -13.7165  -16.5893   35.0070 C   0  0  0  0  0  0  0  0  0  0  0  0
  -14.1890  -15.3806   35.5139 C   0  0  0  0  0  0  0  0  0  0  0  0
  -17.1882  -13.9452   37.5332 C   0  0  0  0  0  0  0  0  0  0  0  0
  -17.2888  -12.4691   37.8195 C   0  0  0  0  0  0  0  0  0  0  0  0
  -18.2787  -11.9421   38.3053 O   0  0  0  0  0  0  0  0  0  0  0  0
  -16.4318   -9.5961   38.0153 N   0  0  0  0  0  0  0  0  0  0  0  0
  -13.8407   -3.6225   37.9187 H   0  0  0  0  0  0  0  0  0  0  0  0
  -15.0684   -3.5264   39.1998 H   0  0  0  0  0  0  0  0  0  0  0  0
  -13.5233   -4.3962   39.4876 H   0  0  0  0  0  0  0  0  0  0  0  0
  -14.6937   -6.4886   39.9799 H   0  0  0  0  0  0  0  0  0  0  0  0
  -16.1535   -5.4920   39.8449 H   0  0  0  0  0  0  0  0  0  0  0  0
  -16.7199   -7.0039   37.7393 H   0  0  0  0  0  0  0  0  0  0  0  0
  -17.1199   -7.5057   39.3989 H   0  0  0  0  0  0  0  0  0  0  0  0
  -13.6597   -8.3794   39.2483 H   0  0  0  0  0  0  0  0  0  0  0  0
  -13.4065  -10.8799   38.1969 H   0  0  0  0  0  0  0  0  0  0  0  0
  -16.7862  -16.6800   37.2554 H   0  0  0  0  0  0  0  0  0  0  0  0
  -15.8249  -18.7353   36.2551 H   0  0  0  0  0  0  0  0  0  0  0  0
  -12.8496  -16.6068   34.3538 H   0  0  0  0  0  0  0  0  0  0  0  0
  -13.7203  -14.4444   35.2379 H   0  0  0  0  0  0  0  0  0  0  0  0
  -17.2254  -14.5029   38.4724 H   0  0  0  0  0  0  0  0  0  0  0  0
  -17.9904  -14.2355   36.8661 H   0  0  0  0  0  0  0  0  0  0  0  0
  1  2  1  0
  2  3  1  0
  3  4  1  0
  4  5  1  0
  5  6  1  0
  6  7  2  0
  7  8  1  0
  8  9  1  0
  9 10  1  0
 10 11  2  0
 11 12  1  0
 12 13  2  0
 13 14  1  0
 14 15  2  0
 15 16  1  0
 16 17  2  0
 11 18  1  0
 18 19  1  0
 19 20  2  0
  8 21  2  0
 21  5  1  0
 19  9  1  0
 17 12  1  0
  1 22  1  0
  1 23  1  0
  1 24  1  0
  3 25  1  0
  3 26  1  0
  4 27  1  0
  4 28  1  0
  6 29  1  0
  7 30  1  0
 13 31  1  0
 14 32  1  0
 16 33  1  0
 17 34  1  0
 18 35  1  0
 18 36  1  0
M  END
>  <Energy>  (1251) 
67.402455489654898

>  <compound_id>  (1251) 
22022

>  <target_id>  (1251) 
1

>  <reference_id>  (1251) 
82

>  <inspiration_ids>  (1251) 
[7, 82]

>  <energy_score>  (1251) 
-11.745494885987

>  <distance_score>  (1251) 
9.163320428583907

>  <path>  (1251) 
/opt/xchem-fragalysis-2/maxwin/BulkDock/SCRATCH/511023/C22022-P82/C22022-P82.minimised.mol

>  <scratch_subdir>  (1251) 
/opt/xchem-fragalysis-2/maxwin/BulkDock/SCRATCH/511023/C22022-P82

>  <fragmenstein_runtime>  (1251) 
8.967783212661743

>  <fragmenstein_outcome>  (1251) 
too moved

>  <fragmenstein_mode>  (1251) 
expansion

>  <fragmenstein_error>  (1251) 


$$$$
C47144-P7
     RDKit          3D

 45 46  0  0  0  0  0  0  0  0999 V2000
  -11.4405   -4.6769   35.8583 C   0  0  0  0  0  0  0  0  0  0  0  0
  -10.7698   -5.8941   35.4838 O   0  0  0  0  0  0  0  0  0  0  0  0
  -11.3143   -7.2296   34.6963 C   0  0  0  0  0  0  0  0  0  0  0  0
  -11.7792   -9.2662   34.7903 C   0  0  0  0  0  0  0  0  0  0  0  0
  -13.3450   -9.8786   34.7207 N   0  0  0  0  0  0  0  0  0  0  0  0
  -13.6106  -10.7424   33.6088 N   0  0  0  0  0  0  0  0  0  0  0  0
  -14.7704  -11.3026   33.2749 C   0  0  0  0  0  0  0  0  0  0  0  0
  -15.0813  -12.5020   31.8892 C   0  0  0  0  0  0  0  0  0  0  0  0
  -16.1699  -13.0614   32.0548 O   0  0  0  0  0  0  0  0  0  0  0  0
  -13.8533  -12.7991   30.6765 N   0  0  0  0  0  0  0  0  0  0  0  0
  -13.7287  -14.0847   29.3883 C   0  0  0  0  0  0  0  0  0  0  0  0
  -14.5787  -13.7797   28.1754 C   0  0  0  0  0  0  0  0  0  0  0  0
  -12.3987  -15.3259   28.8317 C   0  0  0  0  0  0  0  0  0  0  0  0
  -11.8538  -16.7837   29.3549 N   0  0  0  0  0  0  0  0  0  0  0  0
  -12.1783  -18.4571   28.8302 C   0  0  0  0  0  0  0  0  0  0  0  0
  -12.0953  -20.4259   29.1075 C   0  0  0  0  0  0  0  0  0  0  0  0
  -11.8252  -21.3708   30.2518 C   0  0  0  0  0  0  0  0  0  0  0  0
  -11.5484  -22.5969   29.7203 C   0  0  0  0  0  0  0  0  0  0  0  0
  -11.6536  -22.5238   28.3956 O   0  0  0  0  0  0  0  0  0  0  0  0
  -12.0535  -21.2890   28.0443 N   0  0  0  0  0  0  0  0  0  0  0  0
  -15.8360  -11.1498   34.3010 C   0  0  0  0  0  0  0  0  0  0  0  0
  -15.6246  -10.3562   35.3677 C   0  0  0  0  0  0  0  0  0  0  0  0
  -14.3386   -9.6471   35.6486 C   0  0  0  0  0  0  0  0  0  0  0  0
  -14.2315   -8.9605   36.6585 O   0  0  0  0  0  0  0  0  0  0  0  0
  -11.4244   -3.9225   35.0697 H   0  0  0  0  0  0  0  0  0  0  0  0
  -12.4594   -4.7645   36.2255 H   0  0  0  0  0  0  0  0  0  0  0  0
  -10.8646   -4.2317   36.6760 H   0  0  0  0  0  0  0  0  0  0  0  0
  -10.4580   -7.1223   33.9991 H   0  0  0  0  0  0  0  0  0  0  0  0
  -11.7500   -7.2473   35.6082 H   0  0  0  0  0  0  0  0  0  0  0  0
  -11.2758  -10.0104   35.4499 H   0  0  0  0  0  0  0  0  0  0  0  0
  -11.2945   -9.5969   33.8629 H   0  0  0  0  0  0  0  0  0  0  0  0
  -13.1310  -12.1248   30.7588 H   0  0  0  0  0  0  0  0  0  0  0  0
  -13.8400  -14.9385   30.0087 H   0  0  0  0  0  0  0  0  0  0  0  0
  -14.7049  -14.6584   27.5358 H   0  0  0  0  0  0  0  0  0  0  0  0
  -14.0995  -12.9973   27.5786 H   0  0  0  0  0  0  0  0  0  0  0  0
  -15.5751  -13.4234   28.4450 H   0  0  0  0  0  0  0  0  0  0  0  0
  -11.4919  -14.7141   28.8287 H   0  0  0  0  0  0  0  0  0  0  0  0
  -12.6513  -15.5273   27.7850 H   0  0  0  0  0  0  0  0  0  0  0  0
  -11.7863  -16.8311   30.3760 H   0  0  0  0  0  0  0  0  0  0  0  0
  -11.1708  -18.3961   29.1661 H   0  0  0  0  0  0  0  0  0  0  0  0
  -13.1004  -18.4897   29.3178 H   0  0  0  0  0  0  0  0  0  0  0  0
  -11.7564  -21.1892   31.3165 H   0  0  0  0  0  0  0  0  0  0  0  0
  -11.2789  -23.5604   30.1152 H   0  0  0  0  0  0  0  0  0  0  0  0
  -16.7181  -11.7668   34.1951 H   0  0  0  0  0  0  0  0  0  0  0  0
  -16.3710  -10.2543   36.1470 H   0  0  0  0  0  0  0  0  0  0  0  0
  1  2  1  0
  2  3  1  0
  3  4  1  0
  4  5  1  0
  5  6  1  0
  6  7  2  0
  7  8  1  0
  8  9  2  0
  8 10  1  0
 10 11  1  0
 11 12  1  0
 11 13  1  0
 13 14  1  0
 14 15  1  0
 15 16  1  0
 16 17  1  0
 17 18  2  0
 18 19  1  0
 19 20  1  0
  7 21  1  0
 21 22  2  0
 22 23  1  0
 23 24  2  0
 23  5  1  0
 20 16  2  0
  1 25  1  0
  1 26  1  0
  1 27  1  0
  3 28  1  0
  3 29  1  0
  4 30  1  0
  4 31  1  0
 10 32  1  0
 11 33  1  0
 12 34  1  0
 12 35  1  0
 12 36  1  0
 13 37  1  0
 13 38  1  0
 14 39  1  0
 15 40  1  0
 15 41  1  0
 17 42  1  0
 18 43  1  0
 21 44  1  0
 22 45  1  0
M  END
>  <Energy>  (1252) 
715.04118927905733

>  <compound_id>  (1252) 
47144

>  <target_id>  (1252) 
1

>  <reference_id>  (1252) 
7

>  <inspiration_ids>  (1252) 
[7, 82]

>  <energy_score>  (1252) 
560.2934139213671

>  <distance_score>  (1252) 
9.286406504681722

>  <path>  (1252) 
/opt/xchem-fragalysis-2/maxwin/BulkDock/SCRATCH/511023/C47144-P7/C47144-P7.minimised.mol

>  <scratch_subdir>  (1252) 
/opt/xchem-fragalysis-2/maxwin/BulkDock/SCRATCH/511023/C47144-P7

>  <fragmenstein_runtime>  (1252) 
15.625842094421387

>  <fragmenstein_outcome>  (1252) 
too moved

>  <fragmenstein_mode>  (1252) 
expansion

>  <fragmenstein_error>  (1252) 


$$$$
C47144-P82
     RDKit          3D

 45 46  0  0  0  0  0  0  0  0999 V2000
  -15.4523   -9.0888   38.7433 C   0  0  0  0  0  0  0  0  0  0  0  0
  -14.3005   -9.9238   38.7164 O   0  0  0  0  0  0  0  0  0  0  0  0
  -13.9860  -10.4622   37.4152 C   0  0  0  0  0  0  0  0  0  0  0  0
  -14.8460  -11.6611   36.9847 C   0  0  0  0  0  0  0  0  0  0  0  0
  -14.8192  -12.1562   35.5700 N   0  0  0  0  0  0  0  0  0  0  0  0
  -13.8603  -13.1843   35.1705 N   0  0  0  0  0  0  0  0  0  0  0  0
  -14.2576  -14.1762   34.3997 C   0  0  0  0  0  0  0  0  0  0  0  0
  -13.2391  -15.4357   33.9457 C   0  0  0  0  0  0  0  0  0  0  0  0
  -13.0944  -16.2251   34.8439 O   0  0  0  0  0  0  0  0  0  0  0  0
  -12.6431  -15.4107   32.5576 N   0  0  0  0  0  0  0  0  0  0  0  0
  -11.7541  -16.4299   31.8285 C   0  0  0  0  0  0  0  0  0  0  0  0
  -10.3451  -16.3899   32.4338 C   0  0  0  0  0  0  0  0  0  0  0  0
  -11.6007  -16.7669   29.9867 C   0  0  0  0  0  0  0  0  0  0  0  0
  -12.0310  -18.1633   28.9019 N   0  0  0  0  0  0  0  0  0  0  0  0
  -12.2711  -20.0788   29.0332 C   0  0  0  0  0  0  0  0  0  0  0  0
  -11.7595  -21.3318   29.9123 C   0  0  0  0  0  0  0  0  0  0  0  0
  -11.8356  -22.6857   29.4532 C   0  0  0  0  0  0  0  0  0  0  0  0
  -11.8123  -23.4441   30.5939 C   0  0  0  0  0  0  0  0  0  0  0  0
  -11.6467  -22.6331   31.6647 O   0  0  0  0  0  0  0  0  0  0  0  0
  -11.5812  -21.3188   31.2432 N   0  0  0  0  0  0  0  0  0  0  0  0
  -15.6934  -14.3090   34.0851 C   0  0  0  0  0  0  0  0  0  0  0  0
  -16.4821  -13.2380   34.1991 C   0  0  0  0  0  0  0  0  0  0  0  0
  -16.0448  -12.0321   34.9170 C   0  0  0  0  0  0  0  0  0  0  0  0
  -16.8518  -11.1123   35.0581 O   0  0  0  0  0  0  0  0  0  0  0  0
  -15.5785   -8.7190   39.7645 H   0  0  0  0  0  0  0  0  0  0  0  0
  -15.3307   -8.2294   38.0805 H   0  0  0  0  0  0  0  0  0  0  0  0
  -16.3494   -9.6494   38.4695 H   0  0  0  0  0  0  0  0  0  0  0  0
  -12.9219  -10.6947   37.4237 H   0  0  0  0  0  0  0  0  0  0  0  0
  -14.0987   -9.6607   36.7223 H   0  0  0  0  0  0  0  0  0  0  0  0
  -15.8860  -11.3966   37.2128 H   0  0  0  0  0  0  0  0  0  0  0  0
  -14.6967  -12.5196   37.6491 H   0  0  0  0  0  0  0  0  0  0  0  0
  -13.0489  -14.6419   32.0342 H   0  0  0  0  0  0  0  0  0  0  0  0
  -12.2324  -17.2643   32.3268 H   0  0  0  0  0  0  0  0  0  0  0  0
   -9.9559  -17.3844   32.6608 H   0  0  0  0  0  0  0  0  0  0  0  0
   -9.6382  -15.8790   31.7741 H   0  0  0  0  0  0  0  0  0  0  0  0
  -10.3493  -15.8613   33.3913 H   0  0  0  0  0  0  0  0  0  0  0  0
  -12.1082  -15.9248   29.4940 H   0  0  0  0  0  0  0  0  0  0  0  0
  -10.5362  -16.6453   29.7483 H   0  0  0  0  0  0  0  0  0  0  0  0
  -12.8184  -17.7368   28.4540 H   0  0  0  0  0  0  0  0  0  0  0  0
  -13.3178  -20.1926   29.0534 H   0  0  0  0  0  0  0  0  0  0  0  0
  -12.1444  -20.6482   28.0882 H   0  0  0  0  0  0  0  0  0  0  0  0
  -12.0308  -23.0407   28.4531 H   0  0  0  0  0  0  0  0  0  0  0  0
  -11.9180  -24.4964   30.8127 H   0  0  0  0  0  0  0  0  0  0  0  0
  -16.0446  -15.2581   33.7128 H   0  0  0  0  0  0  0  0  0  0  0  0
  -17.5235  -13.2591   33.9030 H   0  0  0  0  0  0  0  0  0  0  0  0
  1  2  1  0
  2  3  1  0
  3  4  1  0
  4  5  1  0
  5  6  1  0
  6  7  2  0
  7  8  1  0
  8  9  2  0
  8 10  1  0
 10 11  1  0
 11 12  1  0
 11 13  1  0
 13 14  1  0
 14 15  1  0
 15 16  1  0
 16 17  1  0
 17 18  2  0
 18 19  1  0
 19 20  1  0
  7 21  1  0
 21 22  2  0
 22 23  1  0
 23 24  2  0
 23  5  1  0
 20 16  2  0
  1 25  1  0
  1 26  1  0
  1 27  1  0
  3 28  1  0
  3 29  1  0
  4 30  1  0
  4 31  1  0
 10 32  1  0
 11 33  1  0
 12 34  1  0
 12 35  1  0
 12 36  1  0
 13 37  1  0
 13 38  1  0
 14 39  1  0
 15 40  1  0
 15 41  1  0
 17 42  1  0
 18 43  1  0
 21 44  1  0
 22 45  1  0
M  END
>  <Energy>  (1253) 
381.08689525120252

>  <compound_id>  (1253) 
47144

>  <target_id>  (1253) 
1

>  <reference_id>  (1253) 
82

>  <inspiration_ids>  (1253) 
[7, 82]

>  <energy_score>  (1253) 
226.3391198935272

>  <distance_score>  (1253) 
10.03195096333497

>  <path>  (1253) 
/opt/xchem-fragalysis-2/maxwin/BulkDock/SCRATCH/511023/C47144-P82/C47144-P82.minimised.mol

>  <scratch_subdir>  (1253) 
/opt/xchem-fragalysis-2/maxwin/BulkDock/SCRATCH/511023/C47144-P82

>  <fragmenstein_runtime>  (1253) 
13.507847785949707

>  <fragmenstein_outcome>  (1253) 
too moved

>  <fragmenstein_mode>  (1253) 
expansion

>  <fragmenstein_error>  (1253) 


$$$$
C44711-P7
     RDKit          3D

 41 42  0  0  0  0  0  0  0  0999 V2000
  -14.1123   -3.4213   37.8623 C   0  0  0  0  0  0  0  0  0  0  0  0
  -14.5101   -4.7735   38.0268 O   0  0  0  0  0  0  0  0  0  0  0  0
  -15.5335   -5.1394   37.1032 C   0  0  0  0  0  0  0  0  0  0  0  0
  -16.2085   -6.4664   37.4630 C   0  0  0  0  0  0  0  0  0  0  0  0
  -15.3652   -7.6653   37.4187 N   0  0  0  0  0  0  0  0  0  0  0  0
  -15.7132   -8.6331   36.4610 N   0  0  0  0  0  0  0  0  0  0  0  0
  -15.2018   -9.8397   36.5439 C   0  0  0  0  0  0  0  0  0  0  0  0
  -15.7572  -10.9411   35.5232 C   0  0  0  0  0  0  0  0  0  0  0  0
  -16.7772  -10.6073   34.9850 O   0  0  0  0  0  0  0  0  0  0  0  0
  -14.9467  -12.1446   35.3605 N   0  0  0  0  0  0  0  0  0  0  0  0
  -15.0729  -13.2804   34.4153 C   0  0  0  0  0  0  0  0  0  0  0  0
  -15.8386  -14.6135   34.7784 C   0  0  0  0  0  0  0  0  0  0  0  0
  -16.8855  -14.3555   35.8691 C   0  0  0  0  0  0  0  0  0  0  0  0
  -15.0185  -15.8184   35.0117 N   0  0  0  0  0  0  0  0  0  0  0  0
  -13.9691  -16.2912   34.2679 C   0  0  0  0  0  0  0  0  0  0  0  0
  -13.5595  -17.4726   34.8447 C   0  0  0  0  0  0  0  0  0  0  0  0
  -14.4160  -17.6451   35.9331 C   0  0  0  0  0  0  0  0  0  0  0  0
  -15.2801  -16.6350   36.0581 N   0  0  0  0  0  0  0  0  0  0  0  0
  -14.1862  -10.1782   37.5654 C   0  0  0  0  0  0  0  0  0  0  0  0
  -13.9103   -9.2631   38.4989 C   0  0  0  0  0  0  0  0  0  0  0  0
  -14.6105   -7.9682   38.5471 C   0  0  0  0  0  0  0  0  0  0  0  0
  -14.4988   -7.2768   39.5539 O   0  0  0  0  0  0  0  0  0  0  0  0
  -13.3117   -3.2089   38.5758 H   0  0  0  0  0  0  0  0  0  0  0  0
  -13.7308   -3.2531   36.8512 H   0  0  0  0  0  0  0  0  0  0  0  0
  -14.9485   -2.7458   38.0670 H   0  0  0  0  0  0  0  0  0  0  0  0
  -16.3102   -4.3647   37.1106 H   0  0  0  0  0  0  0  0  0  0  0  0
  -15.1169   -5.1800   36.0987 H   0  0  0  0  0  0  0  0  0  0  0  0
  -17.0532   -6.6243   36.7814 H   0  0  0  0  0  0  0  0  0  0  0  0
  -16.6210   -6.3898   38.4766 H   0  0  0  0  0  0  0  0  0  0  0  0
  -14.1971  -12.1310   36.0348 H   0  0  0  0  0  0  0  0  0  0  0  0
  -14.0575  -13.5114   34.0975 H   0  0  0  0  0  0  0  0  0  0  0  0
  -15.5924  -12.8463   33.5519 H   0  0  0  0  0  0  0  0  0  0  0  0
  -16.3959  -14.8976   33.8741 H   0  0  0  0  0  0  0  0  0  0  0  0
  -16.4148  -14.1326   36.8324 H   0  0  0  0  0  0  0  0  0  0  0  0
  -17.5370  -15.2255   36.0080 H   0  0  0  0  0  0  0  0  0  0  0  0
  -17.5291  -13.5120   35.5976 H   0  0  0  0  0  0  0  0  0  0  0  0
  -13.5930  -15.7714   33.3993 H   0  0  0  0  0  0  0  0  0  0  0  0
  -12.7496  -18.1141   34.5279 H   0  0  0  0  0  0  0  0  0  0  0  0
  -14.4384  -18.4467   36.6586 H   0  0  0  0  0  0  0  0  0  0  0  0
  -13.6846  -11.1309   37.5954 H   0  0  0  0  0  0  0  0  0  0  0  0
  -13.1974   -9.4491   39.2942 H   0  0  0  0  0  0  0  0  0  0  0  0
  1  2  1  0
  2  3  1  0
  3  4  1  0
  4  5  1  0
  5  6  1  0
  6  7  2  0
  7  8  1  0
  8  9  2  0
  8 10  1  0
 10 11  1  0
 11 12  1  0
 12 13  1  0
 12 14  1  0
 14 15  1  0
 15 16  2  0
 16 17  1  0
 17 18  2  0
  7 19  1  0
 19 20  2  0
 20 21  1  0
 21 22  2  0
 21  5  1  0
 18 14  1  0
  1 23  1  0
  1 24  1  0
  1 25  1  0
  3 26  1  0
  3 27  1  0
  4 28  1  0
  4 29  1  0
 10 30  1  0
 11 31  1  0
 11 32  1  0
 12 33  1  0
 13 34  1  0
 13 35  1  0
 13 36  1  0
 15 37  1  0
 16 38  1  0
 17 39  1  0
 19 40  1  0
 20 41  1  0
M  END
>  <Energy>  (1254) 
130.76345066163356

>  <compound_id>  (1254) 
44711

>  <target_id>  (1254) 
1

>  <reference_id>  (1254) 
7

>  <inspiration_ids>  (1254) 
[7, 82]

>  <energy_score>  (1254) 
-5.755167327828332

>  <distance_score>  (1254) 
8.552879889818843

>  <path>  (1254) 
/opt/xchem-fragalysis-2/maxwin/BulkDock/SCRATCH/511023/C44711-P7/C44711-P7.minimised.mol

>  <scratch_subdir>  (1254) 
/opt/xchem-fragalysis-2/maxwin/BulkDock/SCRATCH/511023/C44711-P7

>  <fragmenstein_runtime>  (1254) 
11.571318626403809

>  <fragmenstein_outcome>  (1254) 
too moved

>  <fragmenstein_mode>  (1254) 
expansion

>  <fragmenstein_error>  (1254) 


$$$$
C44711-P82
     RDKit          3D

 41 42  0  0  0  0  0  0  0  0999 V2000
  -13.5758   -5.4728   40.5241 C   0  0  0  0  0  0  0  0  0  0  0  0
  -13.5287   -6.8726   40.2694 O   0  0  0  0  0  0  0  0  0  0  0  0
  -14.7308   -7.3266   39.6437 C   0  0  0  0  0  0  0  0  0  0  0  0
  -14.6022   -8.8076   39.2266 C   0  0  0  0  0  0  0  0  0  0  0  0
  -15.5491   -9.3122   38.2060 N   0  0  0  0  0  0  0  0  0  0  0  0
  -15.3419  -10.6710   37.7912 N   0  0  0  0  0  0  0  0  0  0  0  0
  -16.2323  -11.2050   36.9947 C   0  0  0  0  0  0  0  0  0  0  0  0
  -16.2565  -12.7254   36.5520 C   0  0  0  0  0  0  0  0  0  0  0  0
  -17.3599  -13.1846   36.4692 O   0  0  0  0  0  0  0  0  0  0  0  0
  -14.9835  -13.2914   36.2288 N   0  0  0  0  0  0  0  0  0  0  0  0
  -14.6244  -14.5847   35.5981 C   0  0  0  0  0  0  0  0  0  0  0  0
  -15.2623  -15.9112   36.1088 C   0  0  0  0  0  0  0  0  0  0  0  0
  -15.2645  -16.0315   37.6333 C   0  0  0  0  0  0  0  0  0  0  0  0
  -14.6561  -17.1171   35.5112 N   0  0  0  0  0  0  0  0  0  0  0  0
  -15.3124  -18.0967   34.8072 C   0  0  0  0  0  0  0  0  0  0  0  0
  -14.3953  -19.0950   34.5769 C   0  0  0  0  0  0  0  0  0  0  0  0
  -13.2050  -18.6250   35.1581 C   0  0  0  0  0  0  0  0  0  0  0  0
  -13.3672  -17.4436   35.7641 N   0  0  0  0  0  0  0  0  0  0  0  0
  -17.3764  -10.4309   36.4424 C   0  0  0  0  0  0  0  0  0  0  0  0
  -17.5898   -9.1955   36.8855 C   0  0  0  0  0  0  0  0  0  0  0  0
  -16.7022   -8.5924   37.8862 C   0  0  0  0  0  0  0  0  0  0  0  0
  -17.0326   -7.4937   38.3222 O   0  0  0  0  0  0  0  0  0  0  0  0
  -12.6463   -5.1840   41.0220 H   0  0  0  0  0  0  0  0  0  0  0  0
  -13.6567   -4.9131   39.5874 H   0  0  0  0  0  0  0  0  0  0  0  0
  -14.4156   -5.2315   41.1827 H   0  0  0  0  0  0  0  0  0  0  0  0
  -15.5584   -7.2152   40.3544 H   0  0  0  0  0  0  0  0  0  0  0  0
  -14.9267   -6.6869   38.7808 H   0  0  0  0  0  0  0  0  0  0  0  0
  -13.5898   -9.0184   38.8648 H   0  0  0  0  0  0  0  0  0  0  0  0
  -14.7361   -9.4319   40.1189 H   0  0  0  0  0  0  0  0  0  0  0  0
  -14.2447  -12.6348   36.5097 H   0  0  0  0  0  0  0  0  0  0  0  0
  -14.8816  -14.4708   34.5387 H   0  0  0  0  0  0  0  0  0  0  0  0
  -13.5377  -14.6603   35.6369 H   0  0  0  0  0  0  0  0  0  0  0  0
  -16.3110  -15.9130   35.7829 H   0  0  0  0  0  0  0  0  0  0  0  0
  -14.2506  -16.0976   38.0345 H   0  0  0  0  0  0  0  0  0  0  0  0
  -15.7936  -16.9391   37.9463 H   0  0  0  0  0  0  0  0  0  0  0  0
  -15.7657  -15.1810   38.1043 H   0  0  0  0  0  0  0  0  0  0  0  0
  -16.3597  -18.0065   34.5569 H   0  0  0  0  0  0  0  0  0  0  0  0
  -14.5598  -20.0301   34.0616 H   0  0  0  0  0  0  0  0  0  0  0  0
  -12.2319  -19.0985   35.1813 H   0  0  0  0  0  0  0  0  0  0  0  0
  -18.0376  -10.9170   35.7360 H   0  0  0  0  0  0  0  0  0  0  0  0
  -18.4346   -8.6021   36.5600 H   0  0  0  0  0  0  0  0  0  0  0  0
  1  2  1  0
  2  3  1  0
  3  4  1  0
  4  5  1  0
  5  6  1  0
  6  7  2  0
  7  8  1  0
  8  9  2  0
  8 10  1  0
 10 11  1  0
 11 12  1  0
 12 13  1  0
 12 14  1  0
 14 15  1  0
 15 16  2  0
 16 17  1  0
 17 18  2  0
  7 19  1  0
 19 20  2  0
 20 21  1  0
 21 22  2  0
 21  5  1  0
 18 14  1  0
  1 23  1  0
  1 24  1  0
  1 25  1  0
  3 26  1  0
  3 27  1  0
  4 28  1  0
  4 29  1  0
 10 30  1  0
 11 31  1  0
 11 32  1  0
 12 33  1  0
 13 34  1  0
 13 35  1  0
 13 36  1  0
 15 37  1  0
 16 38  1  0
 17 39  1  0
 19 40  1  0
 20 41  1  0
M  END
>  <Energy>  (1255) 
106.81725231853117

>  <compound_id>  (1255) 
44711

>  <target_id>  (1255) 
1

>  <reference_id>  (1255) 
82

>  <inspiration_ids>  (1255) 
[7, 82]

>  <energy_score>  (1255) 
-29.701365670928425

>  <distance_score>  (1255) 
8.677066750313985

>  <path>  (1255) 
/opt/xchem-fragalysis-2/maxwin/BulkDock/SCRATCH/511023/C44711-P82/C44711-P82.minimised.mol

>  <scratch_subdir>  (1255) 
/opt/xchem-fragalysis-2/maxwin/BulkDock/SCRATCH/511023/C44711-P82

>  <fragmenstein_runtime>  (1255) 
11.692014217376709

>  <fragmenstein_outcome>  (1255) 
too moved

>  <fragmenstein_mode>  (1255) 
expansion

>  <fragmenstein_error>  (1255) 


$$$$
C33417-P7
     RDKit          3D

 38 39  0  0  0  0  0  0  0  0999 V2000
  -13.0213   -3.0884   37.1564 C   0  0  0  0  0  0  0  0  0  0  0  0
  -13.0257   -4.4362   36.7119 O   0  0  0  0  0  0  0  0  0  0  0  0
  -11.8244   -4.8018   36.0012 C   0  0  0  0  0  0  0  0  0  0  0  0
  -11.6398   -6.5950   35.5674 C   0  0  0  0  0  0  0  0  0  0  0  0
  -13.1060   -7.9253   36.1517 N   0  0  0  0  0  0  0  0  0  0  0  0
  -13.5556   -8.1323   37.6490 N   0  0  0  0  0  0  0  0  0  0  0  0
  -14.6087   -8.8680   37.8519 C   0  0  0  0  0  0  0  0  0  0  0  0
  -14.8796   -9.5439   39.2085 C   0  0  0  0  0  0  0  0  0  0  0  0
  -15.6584   -9.0259   39.9503 O   0  0  0  0  0  0  0  0  0  0  0  0
  -14.1743  -10.7951   39.3087 N   0  0  0  0  0  0  0  0  0  0  0  0
  -14.2604  -11.8684   40.2991 C   0  0  0  0  0  0  0  0  0  0  0  0
  -14.6807  -13.2254   39.6309 C   0  0  0  0  0  0  0  0  0  0  0  0
  -15.5651  -13.1988   38.8166 O   0  0  0  0  0  0  0  0  0  0  0  0
  -13.8281  -14.3129   40.0652 N   0  0  0  0  0  0  0  0  0  0  0  0
  -13.7170  -15.5996   39.6146 C   0  0  0  0  0  0  0  0  0  0  0  0
  -14.4435  -16.2263   38.7152 N   0  0  0  0  0  0  0  0  0  0  0  0
  -13.8134  -17.4048   38.3374 C   0  0  0  0  0  0  0  0  0  0  0  0
  -12.6103  -17.6511   38.9609 C   0  0  0  0  0  0  0  0  0  0  0  0
  -12.3018  -16.4219   40.1169 S   0  0  0  0  0  0  0  0  0  0  0  0
  -15.5839   -9.1978   36.8118 C   0  0  0  0  0  0  0  0  0  0  0  0
  -15.0448   -9.3436   35.6059 C   0  0  0  0  0  0  0  0  0  0  0  0
  -13.5778   -9.1734   35.4825 C   0  0  0  0  0  0  0  0  0  0  0  0
  -12.9360  -10.0458   34.9101 O   0  0  0  0  0  0  0  0  0  0  0  0
  -12.8784   -2.4063   36.3133 H   0  0  0  0  0  0  0  0  0  0  0  0
  -13.9857   -2.8747   37.6242 H   0  0  0  0  0  0  0  0  0  0  0  0
  -12.2303   -2.9371   37.8968 H   0  0  0  0  0  0  0  0  0  0  0  0
  -11.6184   -4.1523   35.1489 H   0  0  0  0  0  0  0  0  0  0  0  0
  -10.9822   -4.5569   36.6705 H   0  0  0  0  0  0  0  0  0  0  0  0
  -10.7086   -6.3482   36.0279 H   0  0  0  0  0  0  0  0  0  0  0  0
  -11.1838   -6.8133   34.5993 H   0  0  0  0  0  0  0  0  0  0  0  0
  -13.5267  -10.8754   38.5268 H   0  0  0  0  0  0  0  0  0  0  0  0
  -15.0104  -11.6044   41.0501 H   0  0  0  0  0  0  0  0  0  0  0  0
  -13.2785  -11.9398   40.7730 H   0  0  0  0  0  0  0  0  0  0  0  0
  -13.1366  -13.9535   40.7083 H   0  0  0  0  0  0  0  0  0  0  0  0
  -14.2762  -18.0346   37.5870 H   0  0  0  0  0  0  0  0  0  0  0  0
  -11.9237  -18.4722   38.8229 H   0  0  0  0  0  0  0  0  0  0  0  0
  -16.6167   -9.3884   37.0612 H   0  0  0  0  0  0  0  0  0  0  0  0
  -15.5843   -9.6880   34.7368 H   0  0  0  0  0  0  0  0  0  0  0  0
  1  2  1  0
  2  3  1  0
  3  4  1  0
  4  5  1  0
  5  6  1  0
  6  7  2  0
  7  8  1  0
  8  9  2  0
  8 10  1  0
 10 11  1  0
 11 12  1  0
 12 13  2  0
 12 14  1  0
 14 15  1  0
 15 16  2  0
 16 17  1  0
 17 18  2  0
 18 19  1  0
  7 20  1  0
 20 21  2  0
 21 22  1  0
 22 23  2  0
 22  5  1  0
 19 15  1  0
  1 24  1  0
  1 25  1  0
  1 26  1  0
  3 27  1  0
  3 28  1  0
  4 29  1  0
  4 30  1  0
 10 31  1  0
 11 32  1  0
 11 33  1  0
 14 34  1  0
 17 35  1  0
 18 36  1  0
 20 37  1  0
 21 38  1  0
M  END
>  <Energy>  (1256) 
298.51121973108616

>  <compound_id>  (1256) 
33417

>  <target_id>  (1256) 
1

>  <reference_id>  (1256) 
7

>  <inspiration_ids>  (1256) 
[7, 82]

>  <energy_score>  (1256) 
167.21881423255263

>  <distance_score>  (1256) 
10.82365011016192

>  <path>  (1256) 
/opt/xchem-fragalysis-2/maxwin/BulkDock/SCRATCH/511023/C33417-P7/C33417-P7.minimised.mol

>  <scratch_subdir>  (1256) 
/opt/xchem-fragalysis-2/maxwin/BulkDock/SCRATCH/511023/C33417-P7

>  <fragmenstein_runtime>  (1256) 
18.003665447235107

>  <fragmenstein_outcome>  (1256) 
too moved

>  <fragmenstein_mode>  (1256) 
expansion

>  <fragmenstein_error>  (1256) 


$$$$
C33417-P82
     RDKit          3D

 38 39  0  0  0  0  0  0  0  0999 V2000
  -11.9428   -3.9359   36.0779 C   0  0  0  0  0  0  0  0  0  0  0  0
  -11.3249   -5.1175   35.5742 O   0  0  0  0  0  0  0  0  0  0  0  0
  -12.1449   -6.1480   35.1365 C   0  0  0  0  0  0  0  0  0  0  0  0
  -11.6990   -8.0844   35.0759 C   0  0  0  0  0  0  0  0  0  0  0  0
  -10.3718   -9.5469   34.5367 N   0  0  0  0  0  0  0  0  0  0  0  0
   -8.9192  -10.9813   34.8058 N   0  0  0  0  0  0  0  0  0  0  0  0
   -8.7322  -12.1995   33.5336 C   0  0  0  0  0  0  0  0  0  0  0  0
   -9.0695  -14.1298   32.6843 C   0  0  0  0  0  0  0  0  0  0  0  0
  -10.0553  -14.7572   33.0698 O   0  0  0  0  0  0  0  0  0  0  0  0
   -7.9270  -14.6282   31.6939 N   0  0  0  0  0  0  0  0  0  0  0  0
   -7.7935  -15.8407   30.9419 C   0  0  0  0  0  0  0  0  0  0  0  0
   -6.8670  -16.8556   31.5930 C   0  0  0  0  0  0  0  0  0  0  0  0
   -6.0418  -17.4072   30.9223 O   0  0  0  0  0  0  0  0  0  0  0  0
   -7.2359  -17.0394   32.9605 N   0  0  0  0  0  0  0  0  0  0  0  0
   -6.8285  -17.9425   33.8694 C   0  0  0  0  0  0  0  0  0  0  0  0
   -6.1286  -19.0243   33.6544 N   0  0  0  0  0  0  0  0  0  0  0  0
   -5.9250  -19.6606   34.8581 C   0  0  0  0  0  0  0  0  0  0  0  0
   -6.4754  -19.0436   35.9612 C   0  0  0  0  0  0  0  0  0  0  0  0
   -7.3012  -17.6202   35.4687 S   0  0  0  0  0  0  0  0  0  0  0  0
   -8.6204  -11.3602   32.4523 C   0  0  0  0  0  0  0  0  0  0  0  0
   -9.4113  -10.4262   32.1050 C   0  0  0  0  0  0  0  0  0  0  0  0
  -10.1079   -9.0774   33.2181 C   0  0  0  0  0  0  0  0  0  0  0  0
   -9.8680   -7.8419   33.1018 O   0  0  0  0  0  0  0  0  0  0  0  0
  -11.8278   -3.1869   35.3021 H   0  0  0  0  0  0  0  0  0  0  0  0
  -12.9655   -4.1013   36.4157 H   0  0  0  0  0  0  0  0  0  0  0  0
  -11.3701   -3.5437   36.9246 H   0  0  0  0  0  0  0  0  0  0  0  0
  -13.1983   -6.0882   35.4608 H   0  0  0  0  0  0  0  0  0  0  0  0
  -12.4570   -5.6315   34.2447 H   0  0  0  0  0  0  0  0  0  0  0  0
  -11.3260   -7.2903   34.3335 H   0  0  0  0  0  0  0  0  0  0  0  0
  -12.4797   -8.3126   35.7525 H   0  0  0  0  0  0  0  0  0  0  0  0
   -7.2107  -13.9169   31.6350 H   0  0  0  0  0  0  0  0  0  0  0  0
   -8.7894  -16.2593   30.8156 H   0  0  0  0  0  0  0  0  0  0  0  0
   -7.3932  -15.5698   29.9602 H   0  0  0  0  0  0  0  0  0  0  0  0
   -7.9210  -16.3353   33.2160 H   0  0  0  0  0  0  0  0  0  0  0  0
   -5.3395  -20.5658   34.8857 H   0  0  0  0  0  0  0  0  0  0  0  0
   -6.4345  -19.3553   36.9944 H   0  0  0  0  0  0  0  0  0  0  0  0
   -9.4998  -11.9189   32.2526 H   0  0  0  0  0  0  0  0  0  0  0  0
   -9.5563  -10.4182   30.9980 H   0  0  0  0  0  0  0  0  0  0  0  0
  1  2  1  0
  2  3  1  0
  3  4  1  0
  4  5  1  0
  5  6  1  0
  6  7  2  0
  7  8  1  0
  8  9  2  0
  8 10  1  0
 10 11  1  0
 11 12  1  0
 12 13  2  0
 12 14  1  0
 14 15  1  0
 15 16  2  0
 16 17  1  0
 17 18  2  0
 18 19  1  0
  7 20  1  0
 20 21  2  0
 21 22  1  0
 22 23  2  0
 22  5  1  0
 19 15  1  0
  1 24  1  0
  1 25  1  0
  1 26  1  0
  3 27  1  0
  3 28  1  0
  4 29  1  0
  4 30  1  0
 10 31  1  0
 11 32  1  0
 11 33  1  0
 14 34  1  0
 17 35  1  0
 18 36  1  0
 20 37  1  0
 21 38  1  0
M  END
>  <Energy>  (1257) 
985.54032722032275

>  <compound_id>  (1257) 
33417

>  <target_id>  (1257) 
1

>  <reference_id>  (1257) 
82

>  <inspiration_ids>  (1257) 
[7, 82]

>  <energy_score>  (1257) 
854.2479217217785

>  <distance_score>  (1257) 
9.06794905552241

>  <path>  (1257) 
/opt/xchem-fragalysis-2/maxwin/BulkDock/SCRATCH/511023/C33417-P82/C33417-P82.minimised.mol

>  <scratch_subdir>  (1257) 
/opt/xchem-fragalysis-2/maxwin/BulkDock/SCRATCH/511023/C33417-P82

>  <fragmenstein_runtime>  (1257) 
14.488582134246826

>  <fragmenstein_outcome>  (1257) 
too moved

>  <fragmenstein_mode>  (1257) 
expansion

>  <fragmenstein_error>  (1257) 


$$$$
C47145-P7
     RDKit          3D

 48 49  0  0  0  0  0  0  0  0999 V2000
  -14.7224   -8.7523   37.6633 C   0  0  0  0  0  0  0  0  0  0  0  0
  -14.3790   -9.2593   36.3764 O   0  0  0  0  0  0  0  0  0  0  0  0
  -14.1457  -10.6761   36.4031 C   0  0  0  0  0  0  0  0  0  0  0  0
  -14.0242  -11.2598   34.9686 C   0  0  0  0  0  0  0  0  0  0  0  0
  -14.4568  -12.6855   34.8257 N   0  0  0  0  0  0  0  0  0  0  0  0
  -13.6196  -13.6811   34.1417 N   0  0  0  0  0  0  0  0  0  0  0  0
  -14.1237  -14.8682   33.8642 C   0  0  0  0  0  0  0  0  0  0  0  0
  -13.4295  -16.0634   32.8682 C   0  0  0  0  0  0  0  0  0  0  0  0
  -13.5744  -17.1927   33.2982 O   0  0  0  0  0  0  0  0  0  0  0  0
  -12.8056  -15.5572   31.5100 N   0  0  0  0  0  0  0  0  0  0  0  0
  -12.2024  -16.4533   30.0798 C   0  0  0  0  0  0  0  0  0  0  0  0
  -12.6190  -15.4111   28.9789 C   0  0  0  0  0  0  0  0  0  0  0  0
  -11.9398  -18.1850   29.1390 C   0  0  0  0  0  0  0  0  0  0  0  0
  -12.1765  -20.1407   29.3387 N   0  0  0  0  0  0  0  0  0  0  0  0
  -11.7836  -21.0619   30.5889 C   0  0  0  0  0  0  0  0  0  0  0  0
  -11.5690  -21.3821   28.2777 C   0  0  0  0  0  0  0  0  0  0  0  0
  -11.6258  -22.9279   28.3602 C   0  0  0  0  0  0  0  0  0  0  0  0
  -11.2953  -23.8546   29.3892 C   0  0  0  0  0  0  0  0  0  0  0  0
  -11.2887  -25.0882   28.7984 C   0  0  0  0  0  0  0  0  0  0  0  0
  -11.5676  -24.9453   27.4868 O   0  0  0  0  0  0  0  0  0  0  0  0
  -11.7398  -23.6104   27.1993 N   0  0  0  0  0  0  0  0  0  0  0  0
  -15.4590  -15.2514   34.3930 C   0  0  0  0  0  0  0  0  0  0  0  0
  -16.2425  -14.3094   34.9212 C   0  0  0  0  0  0  0  0  0  0  0  0
  -15.8112  -12.9121   35.0489 C   0  0  0  0  0  0  0  0  0  0  0  0
  -16.6374  -12.0757   35.4029 O   0  0  0  0  0  0  0  0  0  0  0  0
  -14.8989   -7.6773   37.5774 H   0  0  0  0  0  0  0  0  0  0  0  0
  -15.6407   -9.2240   38.0261 H   0  0  0  0  0  0  0  0  0  0  0  0
  -13.9055   -8.9257   38.3699 H   0  0  0  0  0  0  0  0  0  0  0  0
  -14.9574  -11.1595   36.9556 H   0  0  0  0  0  0  0  0  0  0  0  0
  -13.2168  -10.8707   36.9512 H   0  0  0  0  0  0  0  0  0  0  0  0
  -12.9982  -11.1388   34.6432 H   0  0  0  0  0  0  0  0  0  0  0  0
  -14.6434  -10.6697   34.2812 H   0  0  0  0  0  0  0  0  0  0  0  0
  -12.9206  -14.5683   31.4416 H   0  0  0  0  0  0  0  0  0  0  0  0
  -11.1682  -16.1191   30.1741 H   0  0  0  0  0  0  0  0  0  0  0  0
  -12.8429  -14.4243   29.3684 H   0  0  0  0  0  0  0  0  0  0  0  0
  -11.7972  -15.2443   28.2736 H   0  0  0  0  0  0  0  0  0  0  0  0
  -13.5560  -15.6628   28.4759 H   0  0  0  0  0  0  0  0  0  0  0  0
  -12.5377  -17.9437   28.3719 H   0  0  0  0  0  0  0  0  0  0  0  0
  -10.9233  -17.9409   28.8199 H   0  0  0  0  0  0  0  0  0  0  0  0
  -11.9482  -20.7881   31.6380 H   0  0  0  0  0  0  0  0  0  0  0  0
  -12.4091  -21.9303   30.5004 H   0  0  0  0  0  0  0  0  0  0  0  0
  -10.7365  -21.2772   30.5246 H   0  0  0  0  0  0  0  0  0  0  0  0
  -10.4828  -21.3076   28.3790 H   0  0  0  0  0  0  0  0  0  0  0  0
  -11.8997  -21.1919   27.2662 H   0  0  0  0  0  0  0  0  0  0  0  0
  -11.0394  -23.6403   30.4090 H   0  0  0  0  0  0  0  0  0  0  0  0
  -11.0942  -26.0944   29.1392 H   0  0  0  0  0  0  0  0  0  0  0  0
  -15.7775  -16.2796   34.2859 H   0  0  0  0  0  0  0  0  0  0  0  0
  -17.2440  -14.5295   35.2702 H   0  0  0  0  0  0  0  0  0  0  0  0
  1  2  1  0
  2  3  1  0
  3  4  1  0
  4  5  1  0
  5  6  1  0
  6  7  2  0
  7  8  1  0
  8  9  2  0
  8 10  1  0
 10 11  1  0
 11 12  1  0
 11 13  1  0
 13 14  1  0
 14 15  1  0
 14 16  1  0
 16 17  1  0
 17 18  1  0
 18 19  2  0
 19 20  1  0
 20 21  1  0
  7 22  1  0
 22 23  2  0
 23 24  1  0
 24 25  2  0
 24  5  1  0
 21 17  2  0
  1 26  1  0
  1 27  1  0
  1 28  1  0
  3 29  1  0
  3 30  1  0
  4 31  1  0
  4 32  1  0
 10 33  1  0
 11 34  1  0
 12 35  1  0
 12 36  1  0
 12 37  1  0
 13 38  1  0
 13 39  1  0
 15 40  1  0
 15 41  1  0
 15 42  1  0
 16 43  1  0
 16 44  1  0
 18 45  1  0
 19 46  1  0
 22 47  1  0
 23 48  1  0
M  END
>  <Energy>  (1258) 
463.16113888595731

>  <compound_id>  (1258) 
47145

>  <target_id>  (1258) 
1

>  <reference_id>  (1258) 
7

>  <inspiration_ids>  (1258) 
[7, 82]

>  <energy_score>  (1258) 
284.5856290144151

>  <distance_score>  (1258) 
9.267631853813679

>  <path>  (1258) 
/opt/xchem-fragalysis-2/maxwin/BulkDock/SCRATCH/511023/C47145-P7/C47145-P7.minimised.mol

>  <scratch_subdir>  (1258) 
/opt/xchem-fragalysis-2/maxwin/BulkDock/SCRATCH/511023/C47145-P7

>  <fragmenstein_runtime>  (1258) 
15.296006202697754

>  <fragmenstein_outcome>  (1258) 
too moved

>  <fragmenstein_mode>  (1258) 
expansion

>  <fragmenstein_error>  (1258) 


$$$$
C47145-P82
     RDKit          3D

 48 49  0  0  0  0  0  0  0  0999 V2000
  -11.9433   -2.9356   38.0412 C   0  0  0  0  0  0  0  0  0  0  0  0
  -10.9350   -3.2054   37.0695 O   0  0  0  0  0  0  0  0  0  0  0  0
  -11.4136   -4.0825   36.0343 C   0  0  0  0  0  0  0  0  0  0  0  0
  -10.2940   -5.5423   35.5997 C   0  0  0  0  0  0  0  0  0  0  0  0
   -9.7506   -6.7084   34.2691 N   0  0  0  0  0  0  0  0  0  0  0  0
   -9.8659   -8.7061   33.9471 N   0  0  0  0  0  0  0  0  0  0  0  0
   -9.7166   -9.7064   32.9290 C   0  0  0  0  0  0  0  0  0  0  0  0
   -8.6043  -11.5271   32.9302 C   0  0  0  0  0  0  0  0  0  0  0  0
   -7.4407  -11.4118   32.8679 O   0  0  0  0  0  0  0  0  0  0  0  0
   -9.2560  -13.2300   32.8506 N   0  0  0  0  0  0  0  0  0  0  0  0
   -8.4204  -14.8876   32.5343 C   0  0  0  0  0  0  0  0  0  0  0  0
   -7.7658  -15.0596   31.1116 C   0  0  0  0  0  0  0  0  0  0  0  0
   -7.4188  -15.7913   33.4897 C   0  0  0  0  0  0  0  0  0  0  0  0
   -7.8585  -16.7526   34.5421 N   0  0  0  0  0  0  0  0  0  0  0  0
   -7.0455  -17.9652   34.5542 C   0  0  0  0  0  0  0  0  0  0  0  0
   -9.2839  -17.0321   34.6995 C   0  0  0  0  0  0  0  0  0  0  0  0
   -9.6155  -17.2319   36.1640 C   0  0  0  0  0  0  0  0  0  0  0  0
   -8.7874  -17.0306   37.3035 C   0  0  0  0  0  0  0  0  0  0  0  0
   -9.6196  -17.2063   38.3766 C   0  0  0  0  0  0  0  0  0  0  0  0
  -10.8580  -17.5327   37.9334 O   0  0  0  0  0  0  0  0  0  0  0  0
  -10.8627  -17.5617   36.5487 N   0  0  0  0  0  0  0  0  0  0  0  0
   -9.4966   -7.8449   32.8297 C   0  0  0  0  0  0  0  0  0  0  0  0
  -10.5034   -7.0893   32.4452 C   0  0  0  0  0  0  0  0  0  0  0  0
  -10.9354   -6.6966   33.8222 C   0  0  0  0  0  0  0  0  0  0  0  0
  -11.7561   -6.7264   34.7450 O   0  0  0  0  0  0  0  0  0  0  0  0
  -11.5171   -2.2651   38.7923 H   0  0  0  0  0  0  0  0  0  0  0  0
  -12.7994   -2.4369   37.5809 H   0  0  0  0  0  0  0  0  0  0  0  0
  -12.2651   -3.8525   38.5423 H   0  0  0  0  0  0  0  0  0  0  0  0
  -11.5734   -3.4092   35.1774 H   0  0  0  0  0  0  0  0  0  0  0  0
  -12.4177   -4.4719   36.2694 H   0  0  0  0  0  0  0  0  0  0  0  0
   -9.2825   -5.1438   35.6151 H   0  0  0  0  0  0  0  0  0  0  0  0
  -11.1216   -5.2204   34.9727 H   0  0  0  0  0  0  0  0  0  0  0  0
  -10.1682  -13.1991   32.9931 H   0  0  0  0  0  0  0  0  0  0  0  0
   -9.3446  -15.4703   32.4573 H   0  0  0  0  0  0  0  0  0  0  0  0
   -7.3973  -16.0765   30.9377 H   0  0  0  0  0  0  0  0  0  0  0  0
   -8.4724  -14.8823   30.2986 H   0  0  0  0  0  0  0  0  0  0  0  0
   -6.8870  -14.4141   31.0155 H   0  0  0  0  0  0  0  0  0  0  0  0
   -6.8058  -16.3894   32.8043 H   0  0  0  0  0  0  0  0  0  0  0  0
   -6.6827  -15.1106   33.9430 H   0  0  0  0  0  0  0  0  0  0  0  0
   -7.1845  -18.5165   35.4871 H   0  0  0  0  0  0  0  0  0  0  0  0
   -7.2804  -18.6264   33.7248 H   0  0  0  0  0  0  0  0  0  0  0  0
   -5.9781  -17.7196   34.5116 H   0  0  0  0  0  0  0  0  0  0  0  0
   -9.5952  -17.8909   34.1078 H   0  0  0  0  0  0  0  0  0  0  0  0
   -9.9045  -16.1963   34.3742 H   0  0  0  0  0  0  0  0  0  0  0  0
   -7.7469  -16.7410   37.3195 H   0  0  0  0  0  0  0  0  0  0  0  0
   -9.5006  -17.1472   39.4479 H   0  0  0  0  0  0  0  0  0  0  0  0
   -8.5188   -7.3052   32.8793 H   0  0  0  0  0  0  0  0  0  0  0  0
  -11.2070   -7.2395   31.6834 H   0  0  0  0  0  0  0  0  0  0  0  0
  1  2  1  0
  2  3  1  0
  3  4  1  0
  4  5  1  0
  5  6  1  0
  6  7  2  0
  7  8  1  0
  8  9  2  0
  8 10  1  0
 10 11  1  0
 11 12  1  0
 11 13  1  0
 13 14  1  0
 14 15  1  0
 14 16  1  0
 16 17  1  0
 17 18  1  0
 18 19  2  0
 19 20  1  0
 20 21  1  0
  7 22  1  0
 22 23  2  0
 23 24  1  0
 24 25  2  0
 24  5  1  0
 21 17  2  0
  1 26  1  0
  1 27  1  0
  1 28  1  0
  3 29  1  0
  3 30  1  0
  4 31  1  0
  4 32  1  0
 10 33  1  0
 11 34  1  0
 12 35  1  0
 12 36  1  0
 12 37  1  0
 13 38  1  0
 13 39  1  0
 15 40  1  0
 15 41  1  0
 15 42  1  0
 16 43  1  0
 16 44  1  0
 18 45  1  0
 19 46  1  0
 22 47  1  0
 23 48  1  0
M  END
>  <Energy>  (1259) 
1181.0241974499202

>  <compound_id>  (1259) 
47145

>  <target_id>  (1259) 
1

>  <reference_id>  (1259) 
82

>  <inspiration_ids>  (1259) 
[7, 82]

>  <energy_score>  (1259) 
1002.4486875783887

>  <distance_score>  (1259) 
8.6705812227914

>  <path>  (1259) 
/opt/xchem-fragalysis-2/maxwin/BulkDock/SCRATCH/511023/C47145-P82/C47145-P82.minimised.mol

>  <scratch_subdir>  (1259) 
/opt/xchem-fragalysis-2/maxwin/BulkDock/SCRATCH/511023/C47145-P82

>  <fragmenstein_runtime>  (1259) 
14.073923349380493

>  <fragmenstein_outcome>  (1259) 
too moved

>  <fragmenstein_mode>  (1259) 
expansion

>  <fragmenstein_error>  (1259) 


$$$$
C47141-P7
     RDKit          3D

 48 49  0  0  0  0  0  0  0  0999 V2000
  -10.9802  -22.5978   32.5487 C   0  0  0  0  0  0  0  0  0  0  0  0
  -11.2166  -21.1133   32.3171 C   0  0  0  0  0  0  0  0  0  0  0  0
   -9.9751  -20.3618   32.2811 O   0  0  0  0  0  0  0  0  0  0  0  0
   -9.6593  -19.3217   33.3483 C   0  0  0  0  0  0  0  0  0  0  0  0
   -8.1719  -18.4125   33.7911 C   0  0  0  0  0  0  0  0  0  0  0  0
   -8.2901  -16.8882   33.7427 C   0  0  0  0  0  0  0  0  0  0  0  0
   -7.3093  -16.2193   33.6643 O   0  0  0  0  0  0  0  0  0  0  0  0
   -9.6374  -16.5316   33.8495 N   0  0  0  0  0  0  0  0  0  0  0  0
  -10.2499  -15.2925   33.9909 C   0  0  0  0  0  0  0  0  0  0  0  0
   -9.9814  -13.5763   32.9614 C   0  0  0  0  0  0  0  0  0  0  0  0
  -11.8324  -14.5619   32.8311 C   0  0  0  0  0  0  0  0  0  0  0  0
   -9.2409  -11.6164   32.6524 N   0  0  0  0  0  0  0  0  0  0  0  0
   -8.0264  -11.5141   32.3203 C   0  0  0  0  0  0  0  0  0  0  0  0
   -8.2438  -11.3858   34.2824 C   0  0  0  0  0  0  0  0  0  0  0  0
  -10.0903   -9.8103   32.8296 C   0  0  0  0  0  0  0  0  0  0  0  0
   -9.9323   -9.4677   33.9162 O   0  0  0  0  0  0  0  0  0  0  0  0
  -10.9606   -8.3845   31.9199 C   0  0  0  0  0  0  0  0  0  0  0  0
  -10.4406   -7.1617   32.1581 C   0  0  0  0  0  0  0  0  0  0  0  0
  -12.2543   -5.6606   31.5469 S   0  0  0  0  0  0  0  0  0  0  0  0
  -11.9407   -6.3437   30.1042 C   0  0  0  0  0  0  0  0  0  0  0  0
  -10.9446   -7.3158   30.4430 N   0  0  0  0  0  0  0  0  0  0  0  0
   -6.7610  -18.9884   33.6845 C   0  0  0  0  0  0  0  0  0  0  0  0
   -7.2627  -18.6109   35.0354 C   0  0  0  0  0  0  0  0  0  0  0  0
  -11.0836  -23.1125   31.5910 H   0  0  0  0  0  0  0  0  0  0  0  0
   -9.9791  -22.8397   32.9113 H   0  0  0  0  0  0  0  0  0  0  0  0
  -11.7249  -23.0027   33.2379 H   0  0  0  0  0  0  0  0  0  0  0  0
  -11.6610  -21.0691   31.3229 H   0  0  0  0  0  0  0  0  0  0  0  0
  -11.9188  -20.7047   33.0495 H   0  0  0  0  0  0  0  0  0  0  0  0
  -10.5882  -19.2401   33.9591 H   0  0  0  0  0  0  0  0  0  0  0  0
  -10.1339  -18.5470   32.9620 H   0  0  0  0  0  0  0  0  0  0  0  0
  -10.1774  -17.3475   33.9778 H   0  0  0  0  0  0  0  0  0  0  0  0
  -11.2244  -15.6380   34.3083 H   0  0  0  0  0  0  0  0  0  0  0  0
   -9.9296  -15.3230   35.0280 H   0  0  0  0  0  0  0  0  0  0  0  0
   -9.2551  -14.1984   32.3624 H   0  0  0  0  0  0  0  0  0  0  0  0
  -12.6929  -14.0920   32.3694 H   0  0  0  0  0  0  0  0  0  0  0  0
  -12.4713  -14.9863   33.6354 H   0  0  0  0  0  0  0  0  0  0  0  0
  -11.7035  -15.3311   32.0552 H   0  0  0  0  0  0  0  0  0  0  0  0
   -8.4146  -10.8140   31.5903 H   0  0  0  0  0  0  0  0  0  0  0  0
   -7.2039  -12.1939   32.0132 H   0  0  0  0  0  0  0  0  0  0  0  0
   -7.4526  -10.9513   34.8991 H   0  0  0  0  0  0  0  0  0  0  0  0
   -9.0555  -11.3627   34.9934 H   0  0  0  0  0  0  0  0  0  0  0  0
   -8.4727  -12.3714   34.0782 H   0  0  0  0  0  0  0  0  0  0  0  0
   -9.9036   -7.0105   33.1085 H   0  0  0  0  0  0  0  0  0  0  0  0
  -12.0628   -5.7175   29.2200 H   0  0  0  0  0  0  0  0  0  0  0  0
   -6.6250  -20.0281   33.4250 H   0  0  0  0  0  0  0  0  0  0  0  0
   -6.0030  -18.3666   33.2154 H   0  0  0  0  0  0  0  0  0  0  0  0
   -7.4997  -19.3035   35.8130 H   0  0  0  0  0  0  0  0  0  0  0  0
   -6.7627  -17.7553   35.4932 H   0  0  0  0  0  0  0  0  0  0  0  0
  1  2  1  0
  2  3  1  0
  3  4  1  0
  4  5  1  0
  5  6  1  0
  6  7  2  0
  6  8  1  0
  8  9  1  0
  9 10  1  0
 10 11  1  0
 10 12  1  0
 12 13  1  0
 13 14  1  0
 12 15  1  0
 15 16  2  0
 15 17  1  0
 17 18  2  0
 18 19  1  0
 19 20  1  0
 20 21  2  0
  5 22  1  0
 22 23  1  0
 23  5  1  0
 21 17  1  0
  1 24  1  0
  1 25  1  0
  1 26  1  0
  2 27  1  0
  2 28  1  0
  4 29  1  0
  4 30  1  0
  8 31  1  0
  9 32  1  0
  9 33  1  0
 10 34  1  0
 11 35  1  0
 11 36  1  0
 11 37  1  0
 13 38  1  0
 13 39  1  0
 14 40  1  0
 14 41  1  0
 14 42  1  0
 18 43  1  0
 20 44  1  0
 22 45  1  0
 22 46  1  0
 23 47  1  0
 23 48  1  0
M  END
>  <Energy>  (1260) 
1291.6140838732942

>  <compound_id>  (1260) 
47141

>  <target_id>  (1260) 
1

>  <reference_id>  (1260) 
7

>  <inspiration_ids>  (1260) 
[7, 82]

>  <energy_score>  (1260) 
1130.9187850475264

>  <distance_score>  (1260) 
9.334196923402462

>  <path>  (1260) 
/opt/xchem-fragalysis-2/maxwin/BulkDock/SCRATCH/511023/C47141-P7/C47141-P7.minimised.mol

>  <scratch_subdir>  (1260) 
/opt/xchem-fragalysis-2/maxwin/BulkDock/SCRATCH/511023/C47141-P7

>  <fragmenstein_runtime>  (1260) 
31.828871726989746

>  <fragmenstein_outcome>  (1260) 
too moved

>  <fragmenstein_mode>  (1260) 
expansion

>  <fragmenstein_error>  (1260) 


$$$$
C47141-P82
     RDKit          3D

 48 49  0  0  0  0  0  0  0  0999 V2000
  -16.5515  -21.1128   34.2155 C   0  0  0  0  0  0  0  0  0  0  0  0
  -15.5145  -20.1405   33.6899 C   0  0  0  0  0  0  0  0  0  0  0  0
  -15.7112  -18.8338   34.2358 O   0  0  0  0  0  0  0  0  0  0  0  0
  -14.7854  -18.4686   35.2644 C   0  0  0  0  0  0  0  0  0  0  0  0
  -15.5440  -17.8985   36.4602 C   0  0  0  0  0  0  0  0  0  0  0  0
  -15.5287  -16.3810   36.6566 C   0  0  0  0  0  0  0  0  0  0  0  0
  -14.5657  -15.9072   37.1796 O   0  0  0  0  0  0  0  0  0  0  0  0
  -16.7481  -15.7772   36.2249 N   0  0  0  0  0  0  0  0  0  0  0  0
  -17.2475  -14.4121   36.3698 C   0  0  0  0  0  0  0  0  0  0  0  0
  -16.1461  -13.0909   36.9316 C   0  0  0  0  0  0  0  0  0  0  0  0
  -14.9352  -12.9706   35.6625 C   0  0  0  0  0  0  0  0  0  0  0  0
  -16.6534  -11.6650   37.3488 N   0  0  0  0  0  0  0  0  0  0  0  0
  -15.8757  -13.2207   37.7828 C   0  0  0  0  0  0  0  0  0  0  0  0
  -16.7283  -13.9691   39.0603 C   0  0  0  0  0  0  0  0  0  0  0  0
  -16.7357  -10.9129   38.5240 C   0  0  0  0  0  0  0  0  0  0  0  0
  -17.7145  -10.9546   39.2605 O   0  0  0  0  0  0  0  0  0  0  0  0
  -15.6353   -9.9566   38.8145 C   0  0  0  0  0  0  0  0  0  0  0  0
  -14.2941  -10.1116   38.5051 C   0  0  0  0  0  0  0  0  0  0  0  0
  -13.3413   -9.0249   39.4373 S   0  0  0  0  0  0  0  0  0  0  0  0
  -14.7643   -8.2012   39.8985 C   0  0  0  0  0  0  0  0  0  0  0  0
  -15.8892   -8.7756   39.5407 N   0  0  0  0  0  0  0  0  0  0  0  0
  -16.7363  -18.6818   37.0156 C   0  0  0  0  0  0  0  0  0  0  0  0
  -15.4393  -18.7234   37.7460 C   0  0  0  0  0  0  0  0  0  0  0  0
  -17.5615  -20.7136   34.0763 H   0  0  0  0  0  0  0  0  0  0  0  0
  -16.4768  -22.0731   33.6969 H   0  0  0  0  0  0  0  0  0  0  0  0
  -16.4214  -21.2935   35.2843 H   0  0  0  0  0  0  0  0  0  0  0  0
  -14.4969  -20.5109   33.8532 H   0  0  0  0  0  0  0  0  0  0  0  0
  -15.6577  -20.0530   32.6081 H   0  0  0  0  0  0  0  0  0  0  0  0
  -14.1135  -17.7066   34.8553 H   0  0  0  0  0  0  0  0  0  0  0  0
  -14.1597  -19.3125   35.5703 H   0  0  0  0  0  0  0  0  0  0  0  0
  -17.3775  -16.5019   35.8973 H   0  0  0  0  0  0  0  0  0  0  0  0
  -18.1345  -14.4424   37.0119 H   0  0  0  0  0  0  0  0  0  0  0  0
  -17.6164  -14.1404   35.3741 H   0  0  0  0  0  0  0  0  0  0  0  0
  -16.7701  -12.6406   36.0615 H   0  0  0  0  0  0  0  0  0  0  0  0
  -15.4200  -12.8950   34.6804 H   0  0  0  0  0  0  0  0  0  0  0  0
  -14.3413  -12.0679   35.8253 H   0  0  0  0  0  0  0  0  0  0  0  0
  -14.3085  -13.8652   35.6565 H   0  0  0  0  0  0  0  0  0  0  0  0
  -15.3390  -12.6251   38.6435 H   0  0  0  0  0  0  0  0  0  0  0  0
  -14.7055  -13.5911   37.8201 H   0  0  0  0  0  0  0  0  0  0  0  0
  -17.7948  -13.7305   39.0042 H   0  0  0  0  0  0  0  0  0  0  0  0
  -16.3573  -13.6064   40.0266 H   0  0  0  0  0  0  0  0  0  0  0  0
  -16.5744  -15.0503   39.0162 H   0  0  0  0  0  0  0  0  0  0  0  0
  -13.8182  -10.8857   37.9237 H   0  0  0  0  0  0  0  0  0  0  0  0
  -14.7378   -7.2925   40.4856 H   0  0  0  0  0  0  0  0  0  0  0  0
  -17.5497  -18.1500   37.4987 H   0  0  0  0  0  0  0  0  0  0  0  0
  -17.0652  -19.5775   36.5083 H   0  0  0  0  0  0  0  0  0  0  0  0
  -15.3659  -18.1914   38.6895 H   0  0  0  0  0  0  0  0  0  0  0  0
  -14.9063  -19.6612   37.7432 H   0  0  0  0  0  0  0  0  0  0  0  0
  1  2  1  0
  2  3  1  0
  3  4  1  0
  4  5  1  0
  5  6  1  0
  6  7  2  0
  6  8  1  0
  8  9  1  0
  9 10  1  0
 10 11  1  0
 10 12  1  0
 12 13  1  0
 13 14  1  0
 12 15  1  0
 15 16  2  0
 15 17  1  0
 17 18  2  0
 18 19  1  0
 19 20  1  0
 20 21  2  0
  5 22  1  0
 22 23  1  0
 23  5  1  0
 21 17  1  0
  1 24  1  0
  1 25  1  0
  1 26  1  0
  2 27  1  0
  2 28  1  0
  4 29  1  0
  4 30  1  0
  8 31  1  0
  9 32  1  0
  9 33  1  0
 10 34  1  0
 11 35  1  0
 11 36  1  0
 11 37  1  0
 13 38  1  0
 13 39  1  0
 14 40  1  0
 14 41  1  0
 14 42  1  0
 18 43  1  0
 20 44  1  0
 22 45  1  0
 22 46  1  0
 23 47  1  0
 23 48  1  0
M  END
>  <Energy>  (1261) 
631.15498674247192

>  <compound_id>  (1261) 
47141

>  <target_id>  (1261) 
1

>  <reference_id>  (1261) 
82

>  <inspiration_ids>  (1261) 
[7, 82]

>  <energy_score>  (1261) 
470.45968791669134

>  <distance_score>  (1261) 
10.761621063517564

>  <path>  (1261) 
/opt/xchem-fragalysis-2/maxwin/BulkDock/SCRATCH/511023/C47141-P82/C47141-P82.minimised.mol

>  <scratch_subdir>  (1261) 
/opt/xchem-fragalysis-2/maxwin/BulkDock/SCRATCH/511023/C47141-P82

>  <fragmenstein_runtime>  (1261) 
33.531816482543945

>  <fragmenstein_outcome>  (1261) 
too moved

>  <fragmenstein_mode>  (1261) 
expansion

>  <fragmenstein_error>  (1261) 


$$$$
C19143-P7
     RDKit          3D

 51 52  0  0  0  0  0  0  0  0999 V2000
  -19.7403   -8.8686   39.8965 C   0  0  0  0  0  0  0  0  0  0  0  0
  -19.6423  -10.0060   38.8997 C   0  0  0  0  0  0  0  0  0  0  0  0
  -18.2836  -10.4308   38.8351 O   0  0  0  0  0  0  0  0  0  0  0  0
  -18.1126  -11.5175   37.9230 C   0  0  0  0  0  0  0  0  0  0  0  0
  -16.6425  -11.8701   37.7590 C   0  0  0  0  0  0  0  0  0  0  0  0
  -16.3953  -13.2496   37.1580 C   0  0  0  0  0  0  0  0  0  0  0  0
  -16.2505  -13.3066   35.9765 O   0  0  0  0  0  0  0  0  0  0  0  0
  -16.4231  -14.2832   38.1460 N   0  0  0  0  0  0  0  0  0  0  0  0
  -16.1872  -15.7291   38.0351 C   0  0  0  0  0  0  0  0  0  0  0  0
  -16.9682  -16.4023   36.8453 C   0  0  0  0  0  0  0  0  0  0  0  0
  -18.4161  -16.5928   37.3903 C   0  0  0  0  0  0  0  0  0  0  0  0
  -16.5780  -17.8110   36.3146 N   0  0  0  0  0  0  0  0  0  0  0  0
  -15.3962  -17.0254   35.7253 C   0  0  0  0  0  0  0  0  0  0  0  0
  -14.0766  -17.6180   36.2517 C   0  0  0  0  0  0  0  0  0  0  0  0
  -17.1849  -18.6308   35.2928 C   0  0  0  0  0  0  0  0  0  0  0  0
  -18.0893  -18.3927   34.5331 O   0  0  0  0  0  0  0  0  0  0  0  0
  -16.5497  -19.9627   35.0377 C   0  0  0  0  0  0  0  0  0  0  0  0
  -17.2763  -21.1015   35.3677 C   0  0  0  0  0  0  0  0  0  0  0  0
  -16.7916  -22.3381   34.9580 C   0  0  0  0  0  0  0  0  0  0  0  0
  -15.6094  -22.3954   34.2349 C   0  0  0  0  0  0  0  0  0  0  0  0
  -14.9611  -21.2125   33.9201 C   0  0  0  0  0  0  0  0  0  0  0  0
  -15.4046  -19.9843   34.2903 N   0  0  0  0  0  0  0  0  0  0  0  0
  -15.5711  -11.2544   38.6672 C   0  0  0  0  0  0  0  0  0  0  0  0
  -15.7346  -10.7212   37.2820 C   0  0  0  0  0  0  0  0  0  0  0  0
  -19.3994   -9.1923   40.8855 H   0  0  0  0  0  0  0  0  0  0  0  0
  -20.7696   -8.5085   39.9781 H   0  0  0  0  0  0  0  0  0  0  0  0
  -19.0969   -8.0353   39.5950 H   0  0  0  0  0  0  0  0  0  0  0  0
  -20.2763  -10.8396   39.2212 H   0  0  0  0  0  0  0  0  0  0  0  0
  -19.9707   -9.6639   37.9121 H   0  0  0  0  0  0  0  0  0  0  0  0
  -18.5273  -11.2518   36.9431 H   0  0  0  0  0  0  0  0  0  0  0  0
  -18.6591  -12.3845   38.3119 H   0  0  0  0  0  0  0  0  0  0  0  0
  -16.6502  -13.8732   39.0477 H   0  0  0  0  0  0  0  0  0  0  0  0
  -15.1083  -15.8376   37.9491 H   0  0  0  0  0  0  0  0  0  0  0  0
  -16.4670  -16.1803   38.9937 H   0  0  0  0  0  0  0  0  0  0  0  0
  -17.1671  -15.7182   36.0008 H   0  0  0  0  0  0  0  0  0  0  0  0
  -18.4382  -17.3321   38.1990 H   0  0  0  0  0  0  0  0  0  0  0  0
  -19.0902  -16.9460   36.6026 H   0  0  0  0  0  0  0  0  0  0  0  0
  -18.8263  -15.6508   37.7700 H   0  0  0  0  0  0  0  0  0  0  0  0
  -15.3862  -17.2520   34.6572 H   0  0  0  0  0  0  0  0  0  0  0  0
  -15.3058  -15.9280   35.7333 H   0  0  0  0  0  0  0  0  0  0  0  0
  -13.9722  -18.6708   35.9835 H   0  0  0  0  0  0  0  0  0  0  0  0
  -14.0013  -17.5568   37.3403 H   0  0  0  0  0  0  0  0  0  0  0  0
  -13.2252  -17.0875   35.8138 H   0  0  0  0  0  0  0  0  0  0  0  0
  -18.2146  -21.0216   35.9054 H   0  0  0  0  0  0  0  0  0  0  0  0
  -17.3234  -23.2513   35.2075 H   0  0  0  0  0  0  0  0  0  0  0  0
  -15.1846  -23.3487   33.9488 H   0  0  0  0  0  0  0  0  0  0  0  0
  -14.0280  -21.2393   33.3659 H   0  0  0  0  0  0  0  0  0  0  0  0
  -14.6697  -11.8208   38.8781 H   0  0  0  0  0  0  0  0  0  0  0  0
  -15.8819  -10.6231   39.4924 H   0  0  0  0  0  0  0  0  0  0  0  0
  -16.1698   -9.7349   37.1651 H   0  0  0  0  0  0  0  0  0  0  0  0
  -14.9648  -10.9474   36.5511 H   0  0  0  0  0  0  0  0  0  0  0  0
  1  2  1  0
  2  3  1  0
  3  4  1  0
  4  5  1  0
  5  6  1  0
  6  7  2  0
  6  8  1  0
  8  9  1  0
  9 10  1  0
 10 11  1  0
 10 12  1  0
 12 13  1  0
 13 14  1  0
 12 15  1  0
 15 16  2  0
 15 17  1  0
 17 18  2  0
 18 19  1  0
 19 20  2  0
 20 21  1  0
 21 22  2  0
  5 23  1  0
 23 24  1  0
 24  5  1  0
 22 17  1  0
  1 25  1  0
  1 26  1  0
  1 27  1  0
  2 28  1  0
  2 29  1  0
  4 30  1  0
  4 31  1  0
  8 32  1  0
  9 33  1  0
  9 34  1  0
 10 35  1  0
 11 36  1  0
 11 37  1  0
 11 38  1  0
 13 39  1  0
 13 40  1  0
 14 41  1  0
 14 42  1  0
 14 43  1  0
 18 44  1  0
 19 45  1  0
 20 46  1  0
 21 47  1  0
 23 48  1  0
 23 49  1  0
 24 50  1  0
 24 51  1  0
M  END
>  <Energy>  (1262) 
156.76009671107423

>  <compound_id>  (1262) 
19143

>  <target_id>  (1262) 
1

>  <reference_id>  (1262) 
7

>  <inspiration_ids>  (1262) 
[7, 82]

>  <energy_score>  (1262) 
27.894775579311727

>  <distance_score>  (1262) 
10.084150230533211

>  <path>  (1262) 
/opt/xchem-fragalysis-2/maxwin/BulkDock/SCRATCH/511023/C19143-P7/C19143-P7.minimised.mol

>  <scratch_subdir>  (1262) 
/opt/xchem-fragalysis-2/maxwin/BulkDock/SCRATCH/511023/C19143-P7

>  <fragmenstein_runtime>  (1262) 
24.47233271598816

>  <fragmenstein_outcome>  (1262) 
too moved

>  <fragmenstein_mode>  (1262) 
expansion

>  <fragmenstein_error>  (1262) 


$$$$
C19143-P82
     RDKit          3D

 51 52  0  0  0  0  0  0  0  0999 V2000
  -16.7368   -7.9320   36.1363 C   0  0  0  0  0  0  0  0  0  0  0  0
  -16.2609   -9.3507   36.3789 C   0  0  0  0  0  0  0  0  0  0  0  0
  -15.0676   -9.2922   37.1650 O   0  0  0  0  0  0  0  0  0  0  0  0
  -14.5537  -10.6015   37.4740 C   0  0  0  0  0  0  0  0  0  0  0  0
  -15.0661  -11.1237   38.8102 C   0  0  0  0  0  0  0  0  0  0  0  0
  -14.8877  -12.6398   39.0617 C   0  0  0  0  0  0  0  0  0  0  0  0
  -14.1993  -12.9587   39.9844 O   0  0  0  0  0  0  0  0  0  0  0  0
  -15.5747  -13.4358   38.0890 N   0  0  0  0  0  0  0  0  0  0  0  0
  -15.5742  -14.8824   37.8582 C   0  0  0  0  0  0  0  0  0  0  0  0
  -15.7425  -15.3330   36.3526 C   0  0  0  0  0  0  0  0  0  0  0  0
  -14.7017  -14.4987   35.5482 C   0  0  0  0  0  0  0  0  0  0  0  0
  -15.4496  -16.7920   35.8304 N   0  0  0  0  0  0  0  0  0  0  0  0
  -16.5981  -17.1335   36.7960 C   0  0  0  0  0  0  0  0  0  0  0  0
  -16.2374  -17.8854   38.0916 C   0  0  0  0  0  0  0  0  0  0  0  0
  -14.3271  -17.6676   36.0645 C   0  0  0  0  0  0  0  0  0  0  0  0
  -13.3751  -17.5398   36.7913 O   0  0  0  0  0  0  0  0  0  0  0  0
  -14.3221  -18.9174   35.1424 C   0  0  0  0  0  0  0  0  0  0  0  0
  -15.4523  -19.4217   34.4999 C   0  0  0  0  0  0  0  0  0  0  0  0
  -15.3457  -20.5672   33.6948 C   0  0  0  0  0  0  0  0  0  0  0  0
  -14.1106  -21.1774   33.5219 C   0  0  0  0  0  0  0  0  0  0  0  0
  -13.0225  -20.5977   34.1529 C   0  0  0  0  0  0  0  0  0  0  0  0
  -13.1054  -19.5031   34.9530 N   0  0  0  0  0  0  0  0  0  0  0  0
  -16.1800  -10.4008   39.5736 C   0  0  0  0  0  0  0  0  0  0  0  0
  -14.7654  -10.1799   39.9904 C   0  0  0  0  0  0  0  0  0  0  0  0
  -16.9370   -7.4258   37.0864 H   0  0  0  0  0  0  0  0  0  0  0  0
  -17.6486   -7.9241   35.5328 H   0  0  0  0  0  0  0  0  0  0  0  0
  -15.9673   -7.3477   35.6210 H   0  0  0  0  0  0  0  0  0  0  0  0
  -17.0356   -9.9202   36.9019 H   0  0  0  0  0  0  0  0  0  0  0  0
  -16.0610   -9.8452   35.4233 H   0  0  0  0  0  0  0  0  0  0  0  0
  -13.4665  -10.4933   37.5453 H   0  0  0  0  0  0  0  0  0  0  0  0
  -14.7615  -11.2899   36.6498 H   0  0  0  0  0  0  0  0  0  0  0  0
  -16.1320  -12.8292   37.5009 H   0  0  0  0  0  0  0  0  0  0  0  0
  -14.6506  -15.2896   38.2730 H   0  0  0  0  0  0  0  0  0  0  0  0
  -16.3964  -15.2487   38.4795 H   0  0  0  0  0  0  0  0  0  0  0  0
  -16.7028  -14.9802   35.9380 H   0  0  0  0  0  0  0  0  0  0  0  0
  -14.7646  -14.6901   34.4763 H   0  0  0  0  0  0  0  0  0  0  0  0
  -14.8390  -13.4227   35.6744 H   0  0  0  0  0  0  0  0  0  0  0  0
  -13.6863  -14.7693   35.8422 H   0  0  0  0  0  0  0  0  0  0  0  0
  -17.4328  -16.4278   36.9492 H   0  0  0  0  0  0  0  0  0  0  0  0
  -17.1471  -17.8923   36.2207 H   0  0  0  0  0  0  0  0  0  0  0  0
  -15.8552  -18.8885   37.8730 H   0  0  0  0  0  0  0  0  0  0  0  0
  -15.4891  -17.3712   38.6976 H   0  0  0  0  0  0  0  0  0  0  0  0
  -17.1376  -18.0144   38.7021 H   0  0  0  0  0  0  0  0  0  0  0  0
  -16.4218  -18.9582   34.6083 H   0  0  0  0  0  0  0  0  0  0  0  0
  -16.2280  -20.9856   33.2161 H   0  0  0  0  0  0  0  0  0  0  0  0
  -13.9964  -22.0738   32.9200 H   0  0  0  0  0  0  0  0  0  0  0  0
  -12.0289  -21.0185   34.0482 H   0  0  0  0  0  0  0  0  0  0  0  0
  -16.6944   -9.5557   39.1360 H   0  0  0  0  0  0  0  0  0  0  0  0
  -16.8083  -10.9901   40.2336 H   0  0  0  0  0  0  0  0  0  0  0  0
  -14.3150   -9.2158   39.7806 H   0  0  0  0  0  0  0  0  0  0  0  0
  -14.4322  -10.6150   40.9267 H   0  0  0  0  0  0  0  0  0  0  0  0
  1  2  1  0
  2  3  1  0
  3  4  1  0
  4  5  1  0
  5  6  1  0
  6  7  2  0
  6  8  1  0
  8  9  1  0
  9 10  1  0
 10 11  1  0
 10 12  1  0
 12 13  1  0
 13 14  1  0
 12 15  1  0
 15 16  2  0
 15 17  1  0
 17 18  2  0
 18 19  1  0
 19 20  2  0
 20 21  1  0
 21 22  2  0
  5 23  1  0
 23 24  1  0
 24  5  1  0
 22 17  1  0
  1 25  1  0
  1 26  1  0
  1 27  1  0
  2 28  1  0
  2 29  1  0
  4 30  1  0
  4 31  1  0
  8 32  1  0
  9 33  1  0
  9 34  1  0
 10 35  1  0
 11 36  1  0
 11 37  1  0
 11 38  1  0
 13 39  1  0
 13 40  1  0
 14 41  1  0
 14 42  1  0
 14 43  1  0
 18 44  1  0
 19 45  1  0
 20 46  1  0
 21 47  1  0
 23 48  1  0
 23 49  1  0
 24 50  1  0
 24 51  1  0
M  END
>  <Energy>  (1263) 
173.08871907222155

>  <compound_id>  (1263) 
19143

>  <target_id>  (1263) 
1

>  <reference_id>  (1263) 
82

>  <inspiration_ids>  (1263) 
[7, 82]

>  <energy_score>  (1263) 
44.223397940462064

>  <distance_score>  (1263) 
9.281616935682644

>  <path>  (1263) 
/opt/xchem-fragalysis-2/maxwin/BulkDock/SCRATCH/511023/C19143-P82/C19143-P82.minimised.mol

>  <scratch_subdir>  (1263) 
/opt/xchem-fragalysis-2/maxwin/BulkDock/SCRATCH/511023/C19143-P82

>  <fragmenstein_runtime>  (1263) 
17.547980070114136

>  <fragmenstein_outcome>  (1263) 
too moved

>  <fragmenstein_mode>  (1263) 
expansion

>  <fragmenstein_error>  (1263) 


$$$$
C47147-P7
     RDKit          3D

 51 52  0  0  0  0  0  0  0  0999 V2000
  -13.4880  -30.3445   30.4039 C   0  0  0  0  0  0  0  0  0  0  0  0
  -13.4242  -28.8254   30.1276 C   0  0  0  0  0  0  0  0  0  0  0  0
  -13.7336  -28.3058   28.7341 N   0  0  0  0  0  0  0  0  0  0  0  0
  -13.0315  -29.0396   27.7838 C   0  0  0  0  0  0  0  0  0  0  0  0
  -11.9541  -28.8610   27.3039 O   0  0  0  0  0  0  0  0  0  0  0  0
  -13.8070  -30.2612   27.4628 C   0  0  0  0  0  0  0  0  0  0  0  0
  -15.2023  -30.2493   27.4393 C   0  0  0  0  0  0  0  0  0  0  0  0
  -15.8675  -31.4616   27.4022 C   0  0  0  0  0  0  0  0  0  0  0  0
  -15.1082  -32.6234   27.3794 C   0  0  0  0  0  0  0  0  0  0  0  0
  -13.7554  -32.6580   27.3711 N   0  0  0  0  0  0  0  0  0  0  0  0
  -13.1257  -31.4680   27.3959 C   0  0  0  0  0  0  0  0  0  0  0  0
  -13.4063  -26.9214   29.4215 C   0  0  0  0  0  0  0  0  0  0  0  0
  -14.8262  -26.3011   29.4077 C   0  0  0  0  0  0  0  0  0  0  0  0
  -12.1628  -25.9727   28.8522 C   0  0  0  0  0  0  0  0  0  0  0  0
  -11.9042  -24.8364   29.8102 N   0  0  0  0  0  0  0  0  0  0  0  0
  -10.6769  -24.3905   30.4512 C   0  0  0  0  0  0  0  0  0  0  0  0
   -9.5525  -24.7600   30.3133 O   0  0  0  0  0  0  0  0  0  0  0  0
  -10.8987  -23.1702   31.7683 C   0  0  0  0  0  0  0  0  0  0  0  0
  -11.4315  -21.7134   31.6930 C   0  0  0  0  0  0  0  0  0  0  0  0
  -12.3259  -21.0247   32.8342 C   0  0  0  0  0  0  0  0  0  0  0  0
  -12.3405  -20.9466   34.2537 O   0  0  0  0  0  0  0  0  0  0  0  0
  -12.8414  -19.6771   34.7622 C   0  0  0  0  0  0  0  0  0  0  0  0
  -11.0452  -23.7121   33.2144 C   0  0  0  0  0  0  0  0  0  0  0  0
   -9.7087  -23.3494   32.7460 C   0  0  0  0  0  0  0  0  0  0  0  0
  -13.3775  -30.5153   31.4813 H   0  0  0  0  0  0  0  0  0  0  0  0
  -12.6826  -30.8984   29.9216 H   0  0  0  0  0  0  0  0  0  0  0  0
  -14.4532  -30.7700   30.1175 H   0  0  0  0  0  0  0  0  0  0  0  0
  -12.4469  -28.5387   30.5398 H   0  0  0  0  0  0  0  0  0  0  0  0
  -14.3178  -28.5523   30.6835 H   0  0  0  0  0  0  0  0  0  0  0  0
  -15.7590  -29.3186   27.4887 H   0  0  0  0  0  0  0  0  0  0  0  0
  -16.9506  -31.5090   27.3956 H   0  0  0  0  0  0  0  0  0  0  0  0
  -15.5897  -33.5981   27.3534 H   0  0  0  0  0  0  0  0  0  0  0  0
  -12.0403  -31.5156   27.4277 H   0  0  0  0  0  0  0  0  0  0  0  0
  -13.1765  -26.9102   30.4766 H   0  0  0  0  0  0  0  0  0  0  0  0
  -15.5188  -26.8945   30.0179 H   0  0  0  0  0  0  0  0  0  0  0  0
  -15.2655  -26.3160   28.4055 H   0  0  0  0  0  0  0  0  0  0  0  0
  -14.8573  -25.3042   29.8269 H   0  0  0  0  0  0  0  0  0  0  0  0
  -12.2654  -25.6196   27.8280 H   0  0  0  0  0  0  0  0  0  0  0  0
  -11.2582  -26.5905   28.8755 H   0  0  0  0  0  0  0  0  0  0  0  0
  -12.6760  -24.2357   30.1103 H   0  0  0  0  0  0  0  0  0  0  0  0
  -11.9539  -21.6106   30.7345 H   0  0  0  0  0  0  0  0  0  0  0  0
  -10.5665  -21.0571   31.6137 H   0  0  0  0  0  0  0  0  0  0  0  0
  -13.3681  -21.1659   32.5464 H   0  0  0  0  0  0  0  0  0  0  0  0
  -11.8923  -20.0591   32.6950 H   0  0  0  0  0  0  0  0  0  0  0  0
  -13.9051  -19.5840   34.5284 H   0  0  0  0  0  0  0  0  0  0  0  0
  -12.7172  -19.6573   35.8421 H   0  0  0  0  0  0  0  0  0  0  0  0
  -12.2678  -18.8379   34.3642 H   0  0  0  0  0  0  0  0  0  0  0  0
  -11.6805  -23.1475   33.8814 H   0  0  0  0  0  0  0  0  0  0  0  0
  -11.0525  -24.7462   33.5530 H   0  0  0  0  0  0  0  0  0  0  0  0
   -9.1563  -22.4900   33.0804 H   0  0  0  0  0  0  0  0  0  0  0  0
   -9.0481  -24.1969   32.5799 H   0  0  0  0  0  0  0  0  0  0  0  0
  1  2  1  0
  2  3  1  0
  3  4  1  0
  4  5  2  0
  4  6  1  0
  6  7  2  0
  7  8  1  0
  8  9  2  0
  9 10  1  0
 10 11  2  0
  3 12  1  0
 12 13  1  0
 12 14  1  0
 14 15  1  0
 15 16  1  0
 16 17  2  0
 16 18  1  0
 18 19  1  0
 19 20  1  0
 20 21  1  0
 21 22  1  0
 18 23  1  0
 23 24  1  0
 11  6  1  0
 24 18  1  0
  1 25  1  0
  1 26  1  0
  1 27  1  0
  2 28  1  0
  2 29  1  0
  7 30  1  0
  8 31  1  0
  9 32  1  0
 11 33  1  0
 12 34  1  0
 13 35  1  0
 13 36  1  0
 13 37  1  0
 14 38  1  0
 14 39  1  0
 15 40  1  0
 19 41  1  0
 19 42  1  0
 20 43  1  0
 20 44  1  0
 22 45  1  0
 22 46  1  0
 22 47  1  0
 23 48  1  0
 23 49  1  0
 24 50  1  0
 24 51  1  0
M  END
>  <Energy>  (1264) 
225.6039664131618

>  <compound_id>  (1264) 
47147

>  <target_id>  (1264) 
1

>  <reference_id>  (1264) 
7

>  <inspiration_ids>  (1264) 
[7, 82]

>  <energy_score>  (1264) 
137.31166351947303

>  <distance_score>  (1264) 
16.565957993277205

>  <path>  (1264) 
/opt/xchem-fragalysis-2/maxwin/BulkDock/SCRATCH/511023/C47147-P7/C47147-P7.minimised.mol

>  <scratch_subdir>  (1264) 
/opt/xchem-fragalysis-2/maxwin/BulkDock/SCRATCH/511023/C47147-P7

>  <fragmenstein_runtime>  (1264) 
35.16952562332153

>  <fragmenstein_outcome>  (1264) 
too moved

>  <fragmenstein_mode>  (1264) 
expansion

>  <fragmenstein_error>  (1264) 


$$$$
C47147-P82
     RDKit          3D

 51 52  0  0  0  0  0  0  0  0999 V2000
   -8.1097  -13.4616   26.2144 C   0  0  0  0  0  0  0  0  0  0  0  0
   -7.8662  -12.3757   25.1521 C   0  0  0  0  0  0  0  0  0  0  0  0
   -6.4396  -12.4216   24.6793 N   0  0  0  0  0  0  0  0  0  0  0  0
   -6.1838  -13.6738   23.9867 C   0  0  0  0  0  0  0  0  0  0  0  0
   -6.2834  -13.9559   22.8189 O   0  0  0  0  0  0  0  0  0  0  0  0
   -5.8304  -14.8668   24.8642 C   0  0  0  0  0  0  0  0  0  0  0  0
   -5.2989  -14.7968   26.1544 C   0  0  0  0  0  0  0  0  0  0  0  0
   -5.1600  -15.9620   26.9233 C   0  0  0  0  0  0  0  0  0  0  0  0
   -5.5183  -17.1769   26.3618 C   0  0  0  0  0  0  0  0  0  0  0  0
   -6.0258  -17.3026   25.1208 N   0  0  0  0  0  0  0  0  0  0  0  0
   -6.1720  -16.1497   24.4110 C   0  0  0  0  0  0  0  0  0  0  0  0
   -6.8283  -10.9497   24.1011 C   0  0  0  0  0  0  0  0  0  0  0  0
   -6.0183  -10.8280   22.7801 C   0  0  0  0  0  0  0  0  0  0  0  0
   -6.3462   -9.7422   25.0006 C   0  0  0  0  0  0  0  0  0  0  0  0
   -7.2659   -8.9182   25.8031 N   0  0  0  0  0  0  0  0  0  0  0  0
   -7.7515   -7.5622   25.6028 C   0  0  0  0  0  0  0  0  0  0  0  0
   -7.5903   -6.8038   24.6933 O   0  0  0  0  0  0  0  0  0  0  0  0
   -8.5318   -6.9452   26.8351 C   0  0  0  0  0  0  0  0  0  0  0  0
   -9.8354   -6.0839   26.6156 C   0  0  0  0  0  0  0  0  0  0  0  0
  -10.3246   -5.1701   27.7946 C   0  0  0  0  0  0  0  0  0  0  0  0
  -11.6790   -4.7188   27.6272 O   0  0  0  0  0  0  0  0  0  0  0  0
  -12.2832   -4.2484   28.8335 C   0  0  0  0  0  0  0  0  0  0  0  0
   -7.5259   -6.3525   27.8415 C   0  0  0  0  0  0  0  0  0  0  0  0
   -8.3568   -7.5383   28.2151 C   0  0  0  0  0  0  0  0  0  0  0  0
   -7.3616  -13.4357   27.0075 H   0  0  0  0  0  0  0  0  0  0  0  0
   -9.0854  -13.3310   26.6744 H   0  0  0  0  0  0  0  0  0  0  0  0
   -8.1136  -14.4697   25.8012 H   0  0  0  0  0  0  0  0  0  0  0  0
   -8.5207  -12.6053   24.3034 H   0  0  0  0  0  0  0  0  0  0  0  0
   -8.1890  -11.4501   25.6375 H   0  0  0  0  0  0  0  0  0  0  0  0
   -5.0167  -13.8366   26.5757 H   0  0  0  0  0  0  0  0  0  0  0  0
   -4.7623  -15.9223   27.9315 H   0  0  0  0  0  0  0  0  0  0  0  0
   -5.3694  -18.1062   26.8930 H   0  0  0  0  0  0  0  0  0  0  0  0
   -6.6074  -16.2901   23.4235 H   0  0  0  0  0  0  0  0  0  0  0  0
   -7.8621  -10.8036   23.7410 H   0  0  0  0  0  0  0  0  0  0  0  0
   -4.9475  -10.9802   22.9547 H   0  0  0  0  0  0  0  0  0  0  0  0
   -6.1589   -9.8425   22.3221 H   0  0  0  0  0  0  0  0  0  0  0  0
   -6.3532  -11.5671   22.0463 H   0  0  0  0  0  0  0  0  0  0  0  0
   -5.8226   -9.0108   24.3733 H   0  0  0  0  0  0  0  0  0  0  0  0
   -5.6018  -10.1200   25.7112 H   0  0  0  0  0  0  0  0  0  0  0  0
   -7.6679   -9.2920   26.6552 H   0  0  0  0  0  0  0  0  0  0  0  0
  -10.6375   -6.7694   26.3214 H   0  0  0  0  0  0  0  0  0  0  0  0
   -9.6723   -5.4371   25.7446 H   0  0  0  0  0  0  0  0  0  0  0  0
   -9.6837   -4.2841   27.8606 H   0  0  0  0  0  0  0  0  0  0  0  0
  -10.2547   -5.7032   28.7316 H   0  0  0  0  0  0  0  0  0  0  0  0
  -13.1900   -3.7021   28.5601 H   0  0  0  0  0  0  0  0  0  0  0  0
  -12.5790   -5.0934   29.4574 H   0  0  0  0  0  0  0  0  0  0  0  0
  -11.6172   -3.5701   29.3688 H   0  0  0  0  0  0  0  0  0  0  0  0
   -7.7168   -5.3592   28.2174 H   0  0  0  0  0  0  0  0  0  0  0  0
   -6.4669   -6.5151   27.6567 H   0  0  0  0  0  0  0  0  0  0  0  0
   -9.2022   -7.4568   28.8844 H   0  0  0  0  0  0  0  0  0  0  0  0
   -7.8319   -8.4703   28.3670 H   0  0  0  0  0  0  0  0  0  0  0  0
  1  2  1  0
  2  3  1  0
  3  4  1  0
  4  5  2  0
  4  6  1  0
  6  7  2  0
  7  8  1  0
  8  9  2  0
  9 10  1  0
 10 11  2  0
  3 12  1  0
 12 13  1  0
 12 14  1  0
 14 15  1  0
 15 16  1  0
 16 17  2  0
 16 18  1  0
 18 19  1  0
 19 20  1  0
 20 21  1  0
 21 22  1  0
 18 23  1  0
 23 24  1  0
 11  6  1  0
 24 18  1  0
  1 25  1  0
  1 26  1  0
  1 27  1  0
  2 28  1  0
  2 29  1  0
  7 30  1  0
  8 31  1  0
  9 32  1  0
 11 33  1  0
 12 34  1  0
 13 35  1  0
 13 36  1  0
 13 37  1  0
 14 38  1  0
 14 39  1  0
 15 40  1  0
 19 41  1  0
 19 42  1  0
 20 43  1  0
 20 44  1  0
 22 45  1  0
 22 46  1  0
 22 47  1  0
 23 48  1  0
 23 49  1  0
 24 50  1  0
 24 51  1  0
M  END
>  <Energy>  (1265) 
153.44851644306775

>  <compound_id>  (1265) 
47147

>  <target_id>  (1265) 
1

>  <reference_id>  (1265) 
82

>  <inspiration_ids>  (1265) 
[7, 82]

>  <energy_score>  (1265) 
65.15621354937355

>  <distance_score>  (1265) 
12.732346615693661

>  <path>  (1265) 
/opt/xchem-fragalysis-2/maxwin/BulkDock/SCRATCH/511023/C47147-P82/C47147-P82.minimised.mol

>  <scratch_subdir>  (1265) 
/opt/xchem-fragalysis-2/maxwin/BulkDock/SCRATCH/511023/C47147-P82

>  <fragmenstein_runtime>  (1265) 
29.102915048599243

>  <fragmenstein_outcome>  (1265) 
too moved

>  <fragmenstein_mode>  (1265) 
expansion

>  <fragmenstein_error>  (1265) 


$$$$
C19144-P7
     RDKit          3D

 54 55  0  0  0  0  0  0  0  0999 V2000
  -15.5730  -12.1893   33.4579 C   0  0  0  0  0  0  0  0  0  0  0  0
  -14.9738  -11.2740   34.5158 C   0  0  0  0  0  0  0  0  0  0  0  0
  -14.6176  -12.0207   35.7570 N   0  0  0  0  0  0  0  0  0  0  0  0
  -15.6911  -12.9596   36.1034 C   0  0  0  0  0  0  0  0  0  0  0  0
  -16.6609  -12.8138   36.8071 O   0  0  0  0  0  0  0  0  0  0  0  0
  -15.5044  -14.4536   35.5560 C   0  0  0  0  0  0  0  0  0  0  0  0
  -16.2526  -15.4824   36.1339 C   0  0  0  0  0  0  0  0  0  0  0  0
  -15.8685  -16.8243   35.9491 C   0  0  0  0  0  0  0  0  0  0  0  0
  -14.7561  -17.1334   35.1752 C   0  0  0  0  0  0  0  0  0  0  0  0
  -14.0890  -16.0800   34.5792 C   0  0  0  0  0  0  0  0  0  0  0  0
  -14.4064  -14.7650   34.7857 N   0  0  0  0  0  0  0  0  0  0  0  0
  -14.2983  -10.4696   36.3156 C   0  0  0  0  0  0  0  0  0  0  0  0
  -15.5187   -9.7812   36.9627 C   0  0  0  0  0  0  0  0  0  0  0  0
  -13.3043   -9.4222   35.5614 C   0  0  0  0  0  0  0  0  0  0  0  0
  -13.1408   -7.8100   36.1402 N   0  0  0  0  0  0  0  0  0  0  0  0
  -11.8305   -6.3804   35.6468 C   0  0  0  0  0  0  0  0  0  0  0  0
  -10.8661   -6.4321   34.9155 O   0  0  0  0  0  0  0  0  0  0  0  0
  -12.3365   -4.5600   36.4102 C   0  0  0  0  0  0  0  0  0  0  0  0
  -13.8599   -4.4107   36.8762 C   0  0  0  0  0  0  0  0  0  0  0  0
  -14.0905   -4.0571   38.3390 C   0  0  0  0  0  0  0  0  0  0  0  0
  -13.7262   -5.1790   39.1282 O   0  0  0  0  0  0  0  0  0  0  0  0
  -14.0145   -4.9731   40.5043 C   0  0  0  0  0  0  0  0  0  0  0  0
  -11.9474   -3.1895   35.5508 C   0  0  0  0  0  0  0  0  0  0  0  0
  -11.5003   -2.5257   36.8435 C   0  0  0  0  0  0  0  0  0  0  0  0
  -11.2307   -3.9304   37.3460 C   0  0  0  0  0  0  0  0  0  0  0  0
  -16.5480  -12.5897   33.7439 H   0  0  0  0  0  0  0  0  0  0  0  0
  -14.8902  -13.0009   33.2511 H   0  0  0  0  0  0  0  0  0  0  0  0
  -15.6941  -11.6407   32.5358 H   0  0  0  0  0  0  0  0  0  0  0  0
  -15.7320  -10.4934   34.6262 H   0  0  0  0  0  0  0  0  0  0  0  0
  -14.0541  -10.9596   34.0199 H   0  0  0  0  0  0  0  0  0  0  0  0
  -17.1013  -15.2476   36.7719 H   0  0  0  0  0  0  0  0  0  0  0  0
  -16.4429  -17.6140   36.4283 H   0  0  0  0  0  0  0  0  0  0  0  0
  -14.4313  -18.1587   35.0383 H   0  0  0  0  0  0  0  0  0  0  0  0
  -13.2273  -16.2410   33.9370 H   0  0  0  0  0  0  0  0  0  0  0  0
  -13.6959  -10.7573   37.1913 H   0  0  0  0  0  0  0  0  0  0  0  0
  -16.1805   -9.3134   36.2290 H   0  0  0  0  0  0  0  0  0  0  0  0
  -15.1906   -8.9943   37.6497 H   0  0  0  0  0  0  0  0  0  0  0  0
  -16.1077  -10.4871   37.5532 H   0  0  0  0  0  0  0  0  0  0  0  0
  -13.8882   -9.1897   34.6730 H   0  0  0  0  0  0  0  0  0  0  0  0
  -12.3803   -9.8995   35.2112 H   0  0  0  0  0  0  0  0  0  0  0  0
  -13.9492   -7.4304   36.7453 H   0  0  0  0  0  0  0  0  0  0  0  0
  -14.3401   -3.6122   36.3022 H   0  0  0  0  0  0  0  0  0  0  0  0
  -14.4204   -5.3210   36.6554 H   0  0  0  0  0  0  0  0  0  0  0  0
  -13.5294   -3.1769   38.6594 H   0  0  0  0  0  0  0  0  0  0  0  0
  -15.1575   -3.8501   38.4859 H   0  0  0  0  0  0  0  0  0  0  0  0
  -13.7039   -5.8635   41.0573 H   0  0  0  0  0  0  0  0  0  0  0  0
  -15.0884   -4.8258   40.6535 H   0  0  0  0  0  0  0  0  0  0  0  0
  -13.4582   -4.1121   40.8872 H   0  0  0  0  0  0  0  0  0  0  0  0
  -12.7383   -2.5896   35.0922 H   0  0  0  0  0  0  0  0  0  0  0  0
  -11.1633   -3.2816   34.8110 H   0  0  0  0  0  0  0  0  0  0  0  0
  -12.2868   -1.9758   37.3665 H   0  0  0  0  0  0  0  0  0  0  0  0
  -10.6240   -1.8769   36.7613 H   0  0  0  0  0  0  0  0  0  0  0  0
  -11.2593   -4.0664   38.4267 H   0  0  0  0  0  0  0  0  0  0  0  0
  -10.3063   -4.2679   36.9327 H   0  0  0  0  0  0  0  0  0  0  0  0
  1  2  1  0
  2  3  1  0
  3  4  1  0
  4  5  2  0
  4  6  1  0
  6  7  2  0
  7  8  1  0
  8  9  2  0
  9 10  1  0
 10 11  2  0
  3 12  1  0
 12 13  1  0
 12 14  1  0
 14 15  1  0
 15 16  1  0
 16 17  2  0
 16 18  1  0
 18 19  1  0
 19 20  1  0
 20 21  1  0
 21 22  1  0
 18 23  1  0
 23 24  1  0
 24 25  1  0
 11  6  1  0
 25 18  1  0
  1 26  1  0
  1 27  1  0
  1 28  1  0
  2 29  1  0
  2 30  1  0
  7 31  1  0
  8 32  1  0
  9 33  1  0
 10 34  1  0
 12 35  1  0
 13 36  1  0
 13 37  1  0
 13 38  1  0
 14 39  1  0
 14 40  1  0
 15 41  1  0
 19 42  1  0
 19 43  1  0
 20 44  1  0
 20 45  1  0
 22 46  1  0
 22 47  1  0
 22 48  1  0
 23 49  1  0
 23 50  1  0
 24 51  1  0
 24 52  1  0
 25 53  1  0
 25 54  1  0
M  END
>  <Energy>  (1266) 
361.56006485345404

>  <compound_id>  (1266) 
19144

>  <target_id>  (1266) 
1

>  <reference_id>  (1266) 
7

>  <inspiration_ids>  (1266) 
[7, 82]

>  <energy_score>  (1266) 
229.4340802491306

>  <distance_score>  (1266) 
7.324663035873474

>  <path>  (1266) 
/opt/xchem-fragalysis-2/maxwin/BulkDock/SCRATCH/511023/C19144-P7/C19144-P7.minimised.mol

>  <scratch_subdir>  (1266) 
/opt/xchem-fragalysis-2/maxwin/BulkDock/SCRATCH/511023/C19144-P7

>  <fragmenstein_runtime>  (1266) 
17.664361476898193

>  <fragmenstein_outcome>  (1266) 
too moved

>  <fragmenstein_mode>  (1266) 
expansion

>  <fragmenstein_error>  (1266) 


$$$$
C19144-P82
     RDKit          3D

 54 55  0  0  0  0  0  0  0  0999 V2000
  -15.7847  -13.1157   35.0133 C   0  0  0  0  0  0  0  0  0  0  0  0
  -16.3825  -12.9641   36.4140 C   0  0  0  0  0  0  0  0  0  0  0  0
  -15.5605  -13.7547   37.4541 N   0  0  0  0  0  0  0  0  0  0  0  0
  -16.0176  -15.1393   37.5077 C   0  0  0  0  0  0  0  0  0  0  0  0
  -16.8610  -15.6579   38.1981 O   0  0  0  0  0  0  0  0  0  0  0  0
  -15.2403  -16.1560   36.6190 C   0  0  0  0  0  0  0  0  0  0  0  0
  -14.1090  -15.8377   35.8829 C   0  0  0  0  0  0  0  0  0  0  0  0
  -13.4225  -16.8447   35.1862 C   0  0  0  0  0  0  0  0  0  0  0  0
  -13.8650  -18.1592   35.2386 C   0  0  0  0  0  0  0  0  0  0  0  0
  -15.0006  -18.4090   35.9783 C   0  0  0  0  0  0  0  0  0  0  0  0
  -15.6788  -17.4546   36.6607 N   0  0  0  0  0  0  0  0  0  0  0  0
  -15.9321  -12.5145   38.3563 C   0  0  0  0  0  0  0  0  0  0  0  0
  -15.7854  -13.0139   39.8176 C   0  0  0  0  0  0  0  0  0  0  0  0
  -14.9486  -11.2850   38.2157 C   0  0  0  0  0  0  0  0  0  0  0  0
  -15.5374   -9.9429   38.3185 N   0  0  0  0  0  0  0  0  0  0  0  0
  -16.0738   -9.2286   39.4500 C   0  0  0  0  0  0  0  0  0  0  0  0
  -16.2498   -9.5793   40.5852 O   0  0  0  0  0  0  0  0  0  0  0  0
  -16.3891   -7.6613   39.0421 C   0  0  0  0  0  0  0  0  0  0  0  0
  -15.1992   -6.7672   39.4833 C   0  0  0  0  0  0  0  0  0  0  0  0
  -15.2524   -5.3106   39.0089 C   0  0  0  0  0  0  0  0  0  0  0  0
  -13.9501   -4.7658   38.8291 O   0  0  0  0  0  0  0  0  0  0  0  0
  -13.2877   -4.4824   40.0523 C   0  0  0  0  0  0  0  0  0  0  0  0
  -17.0128   -7.4194   37.6203 C   0  0  0  0  0  0  0  0  0  0  0  0
  -18.0721   -6.5013   38.2474 C   0  0  0  0  0  0  0  0  0  0  0  0
  -17.7458   -7.1179   39.6138 C   0  0  0  0  0  0  0  0  0  0  0  0
  -16.3603  -12.5273   34.2913 H   0  0  0  0  0  0  0  0  0  0  0  0
  -15.8042  -14.1464   34.6768 H   0  0  0  0  0  0  0  0  0  0  0  0
  -14.7493  -12.7612   34.9896 H   0  0  0  0  0  0  0  0  0  0  0  0
  -17.4040  -13.3692   36.4078 H   0  0  0  0  0  0  0  0  0  0  0  0
  -16.4657  -11.8677   36.4791 H   0  0  0  0  0  0  0  0  0  0  0  0
  -13.7544  -14.8171   35.8441 H   0  0  0  0  0  0  0  0  0  0  0  0
  -12.5355  -16.5903   34.6124 H   0  0  0  0  0  0  0  0  0  0  0  0
  -13.3356  -18.9553   34.7285 H   0  0  0  0  0  0  0  0  0  0  0  0
  -15.4197  -19.4065   36.0613 H   0  0  0  0  0  0  0  0  0  0  0  0
  -17.0027  -12.2386   38.3295 H   0  0  0  0  0  0  0  0  0  0  0  0
  -14.7806  -13.4038   40.0083 H   0  0  0  0  0  0  0  0  0  0  0  0
  -15.9824  -12.2093   40.5320 H   0  0  0  0  0  0  0  0  0  0  0  0
  -16.4980  -13.8173   40.0301 H   0  0  0  0  0  0  0  0  0  0  0  0
  -14.1543  -11.3344   38.9691 H   0  0  0  0  0  0  0  0  0  0  0  0
  -14.4624  -11.2965   37.2352 H   0  0  0  0  0  0  0  0  0  0  0  0
  -15.4582   -9.3109   37.5397 H   0  0  0  0  0  0  0  0  0  0  0  0
  -15.1434   -6.7707   40.5804 H   0  0  0  0  0  0  0  0  0  0  0  0
  -14.2696   -7.2429   39.1671 H   0  0  0  0  0  0  0  0  0  0  0  0
  -15.7067   -5.2239   38.0223 H   0  0  0  0  0  0  0  0  0  0  0  0
  -15.8422   -4.6866   39.6904 H   0  0  0  0  0  0  0  0  0  0  0  0
  -12.3278   -4.0129   39.8203 H   0  0  0  0  0  0  0  0  0  0  0  0
  -13.0930   -5.4008   40.6131 H   0  0  0  0  0  0  0  0  0  0  0  0
  -13.8770   -3.7874   40.6580 H   0  0  0  0  0  0  0  0  0  0  0  0
  -16.3710   -6.9492   36.8720 H   0  0  0  0  0  0  0  0  0  0  0  0
  -17.4599   -8.3131   37.1673 H   0  0  0  0  0  0  0  0  0  0  0  0
  -19.0948   -6.6716   37.8972 H   0  0  0  0  0  0  0  0  0  0  0  0
  -17.8675   -5.4297   38.1734 H   0  0  0  0  0  0  0  0  0  0  0  0
  -18.4498   -7.9079   39.9034 H   0  0  0  0  0  0  0  0  0  0  0  0
  -17.6810   -6.4055   40.4417 H   0  0  0  0  0  0  0  0  0  0  0  0
  1  2  1  0
  2  3  1  0
  3  4  1  0
  4  5  2  0
  4  6  1  0
  6  7  2  0
  7  8  1  0
  8  9  2  0
  9 10  1  0
 10 11  2  0
  3 12  1  0
 12 13  1  0
 12 14  1  0
 14 15  1  0
 15 16  1  0
 16 17  2  0
 16 18  1  0
 18 19  1  0
 19 20  1  0
 20 21  1  0
 21 22  1  0
 18 23  1  0
 23 24  1  0
 24 25  1  0
 11  6  1  0
 25 18  1  0
  1 26  1  0
  1 27  1  0
  1 28  1  0
  2 29  1  0
  2 30  1  0
  7 31  1  0
  8 32  1  0
  9 33  1  0
 10 34  1  0
 12 35  1  0
 13 36  1  0
 13 37  1  0
 13 38  1  0
 14 39  1  0
 14 40  1  0
 15 41  1  0
 19 42  1  0
 19 43  1  0
 20 44  1  0
 20 45  1  0
 22 46  1  0
 22 47  1  0
 22 48  1  0
 23 49  1  0
 23 50  1  0
 24 51  1  0
 24 52  1  0
 25 53  1  0
 25 54  1  0
M  END
>  <Energy>  (1267) 
167.05243622577021

>  <compound_id>  (1267) 
19144

>  <target_id>  (1267) 
1

>  <reference_id>  (1267) 
82

>  <inspiration_ids>  (1267) 
[7, 82]

>  <energy_score>  (1267) 
34.92645162145345

>  <distance_score>  (1267) 
8.143125639945795

>  <path>  (1267) 
/opt/xchem-fragalysis-2/maxwin/BulkDock/SCRATCH/511023/C19144-P82/C19144-P82.minimised.mol

>  <scratch_subdir>  (1267) 
/opt/xchem-fragalysis-2/maxwin/BulkDock/SCRATCH/511023/C19144-P82

>  <fragmenstein_runtime>  (1267) 
19.4330735206604

>  <fragmenstein_outcome>  (1267) 
too moved

>  <fragmenstein_mode>  (1267) 
expansion

>  <fragmenstein_error>  (1267) 


$$$$
C19145-P7
     RDKit          3D

 47 48  0  0  0  0  0  0  0  0999 V2000
   -8.5851   -0.9320   39.2666 C   0  0  0  0  0  0  0  0  0  0  0  0
   -9.8104   -1.4876   38.8100 O   0  0  0  0  0  0  0  0  0  0  0  0
   -9.9756   -1.3875   37.3923 C   0  0  0  0  0  0  0  0  0  0  0  0
  -10.7270   -0.1074   37.0447 C   0  0  0  0  0  0  0  0  0  0  0  0
  -10.6763   -2.6494   36.9415 C   0  0  0  0  0  0  0  0  0  0  0  0
  -10.0805   -3.6505   36.3228 N   0  0  0  0  0  0  0  0  0  0  0  0
  -10.8958   -4.7969   35.9163 C   0  0  0  0  0  0  0  0  0  0  0  0
  -10.2321   -6.0708   34.6562 C   0  0  0  0  0  0  0  0  0  0  0  0
   -9.4379   -7.6318   33.8878 N   0  0  0  0  0  0  0  0  0  0  0  0
   -8.6386   -6.7294   33.2800 C   0  0  0  0  0  0  0  0  0  0  0  0
  -10.6252   -8.6064   33.2551 C   0  0  0  0  0  0  0  0  0  0  0  0
  -11.0776   -8.6440   32.1693 O   0  0  0  0  0  0  0  0  0  0  0  0
  -11.5821   -9.8043   34.4980 C   0  0  0  0  0  0  0  0  0  0  0  0
  -13.1889  -10.4018   34.4429 C   0  0  0  0  0  0  0  0  0  0  0  0
  -13.8184  -11.7394   35.5293 S   0  0  0  0  0  0  0  0  0  0  0  0
  -14.8568  -12.8241   34.3973 C   0  0  0  0  0  0  0  0  0  0  0  0
  -14.7450  -14.3468   34.6715 C   0  0  0  0  0  0  0  0  0  0  0  0
  -15.7416  -15.0197   35.3869 C   0  0  0  0  0  0  0  0  0  0  0  0
  -15.5816  -16.3808   35.7146 C   0  0  0  0  0  0  0  0  0  0  0  0
  -14.4474  -17.0689   35.3068 C   0  0  0  0  0  0  0  0  0  0  0  0
  -13.4894  -16.3463   34.6275 C   0  0  0  0  0  0  0  0  0  0  0  0
  -13.5906  -15.0106   34.3455 N   0  0  0  0  0  0  0  0  0  0  0  0
  -12.1682   -4.3903   36.3254 C   0  0  0  0  0  0  0  0  0  0  0  0
  -12.3137   -2.9349   37.2255 S   0  0  0  0  0  0  0  0  0  0  0  0
   -8.5520   -1.0221   40.3557 H   0  0  0  0  0  0  0  0  0  0  0  0
   -8.5157    0.1270   39.0019 H   0  0  0  0  0  0  0  0  0  0  0  0
   -7.7374   -1.4825   38.8472 H   0  0  0  0  0  0  0  0  0  0  0  0
   -8.9957   -1.3654   36.8964 H   0  0  0  0  0  0  0  0  0  0  0  0
  -11.6489   -0.0077   37.6285 H   0  0  0  0  0  0  0  0  0  0  0  0
  -10.1176    0.7698   37.2869 H   0  0  0  0  0  0  0  0  0  0  0  0
  -10.9813   -0.0643   35.9818 H   0  0  0  0  0  0  0  0  0  0  0  0
   -9.3142   -5.8033   35.2741 H   0  0  0  0  0  0  0  0  0  0  0  0
  -11.0847   -6.6336   35.0021 H   0  0  0  0  0  0  0  0  0  0  0  0
   -8.8374   -6.8957   32.2673 H   0  0  0  0  0  0  0  0  0  0  0  0
   -7.6778   -7.1753   32.9979 H   0  0  0  0  0  0  0  0  0  0  0  0
   -7.9703   -6.2802   34.0199 H   0  0  0  0  0  0  0  0  0  0  0  0
  -12.0323   -8.9560   34.9462 H   0  0  0  0  0  0  0  0  0  0  0  0
  -11.0383  -10.2532   35.3390 H   0  0  0  0  0  0  0  0  0  0  0  0
  -13.5610  -10.5863   33.4556 H   0  0  0  0  0  0  0  0  0  0  0  0
  -13.8346   -9.5832   34.7905 H   0  0  0  0  0  0  0  0  0  0  0  0
  -15.8972  -12.5143   34.5462 H   0  0  0  0  0  0  0  0  0  0  0  0
  -14.6329  -12.6292   33.3518 H   0  0  0  0  0  0  0  0  0  0  0  0
  -16.6361  -14.4927   35.7080 H   0  0  0  0  0  0  0  0  0  0  0  0
  -16.3561  -16.8918   36.2819 H   0  0  0  0  0  0  0  0  0  0  0  0
  -14.2940  -18.1137   35.5516 H   0  0  0  0  0  0  0  0  0  0  0  0
  -12.5433  -16.8029   34.3731 H   0  0  0  0  0  0  0  0  0  0  0  0
  -13.1245   -4.8754   36.2850 H   0  0  0  0  0  0  0  0  0  0  0  0
  1  2  1  0
  2  3  1  0
  3  4  1  0
  3  5  1  0
  5  6  2  0
  6  7  1  0
  7  8  1  0
  8  9  1  0
  9 10  1  0
  9 11  1  0
 11 12  2  0
 11 13  1  0
 13 14  1  0
 14 15  1  0
 15 16  1  0
 16 17  1  0
 17 18  2  0
 18 19  1  0
 19 20  2  0
 20 21  1  0
 21 22  2  0
  7 23  2  0
 23 24  1  0
 24  5  1  0
 22 17  1  0
  1 25  1  0
  1 26  1  0
  1 27  1  0
  3 28  1  0
  4 29  1  0
  4 30  1  0
  4 31  1  0
  8 32  1  0
  8 33  1  0
 10 34  1  0
 10 35  1  0
 10 36  1  0
 13 37  1  0
 13 38  1  0
 14 39  1  0
 14 40  1  0
 16 41  1  0
 16 42  1  0
 18 43  1  0
 19 44  1  0
 20 45  1  0
 21 46  1  0
 23 47  1  0
M  END
>  <Energy>  (1268) 
461.37552688148656

>  <compound_id>  (1268) 
19145

>  <target_id>  (1268) 
1

>  <reference_id>  (1268) 
7

>  <inspiration_ids>  (1268) 
[7, 82]

>  <energy_score>  (1268) 
327.0179300085256

>  <distance_score>  (1268) 
8.132002243388905

>  <path>  (1268) 
/opt/xchem-fragalysis-2/maxwin/BulkDock/SCRATCH/511023/C19145-P7/C19145-P7.minimised.mol

>  <scratch_subdir>  (1268) 
/opt/xchem-fragalysis-2/maxwin/BulkDock/SCRATCH/511023/C19145-P7

>  <fragmenstein_runtime>  (1268) 
17.23232078552246

>  <fragmenstein_outcome>  (1268) 
too moved

>  <fragmenstein_mode>  (1268) 
expansion

>  <fragmenstein_error>  (1268) 


$$$$
C19145-P82
     RDKit          3D

 47 48  0  0  0  0  0  0  0  0999 V2000
  -12.2161   -5.8170   43.4604 C   0  0  0  0  0  0  0  0  0  0  0  0
  -11.4526   -5.5820   42.2863 O   0  0  0  0  0  0  0  0  0  0  0  0
  -12.0487   -6.0265   41.0495 C   0  0  0  0  0  0  0  0  0  0  0  0
  -13.4077   -5.3680   40.8232 C   0  0  0  0  0  0  0  0  0  0  0  0
  -12.0317   -7.5455   40.9831 C   0  0  0  0  0  0  0  0  0  0  0  0
  -11.2025   -8.3165   41.6632 N   0  0  0  0  0  0  0  0  0  0  0  0
  -11.3637   -9.6643   41.3340 C   0  0  0  0  0  0  0  0  0  0  0  0
  -10.4755  -10.6730   42.0790 C   0  0  0  0  0  0  0  0  0  0  0  0
  -10.9640  -12.0100   42.7362 N   0  0  0  0  0  0  0  0  0  0  0  0
  -11.9290  -11.0867   43.3904 C   0  0  0  0  0  0  0  0  0  0  0  0
  -11.1635  -13.0161   41.7249 C   0  0  0  0  0  0  0  0  0  0  0  0
  -12.1423  -13.3007   41.0903 O   0  0  0  0  0  0  0  0  0  0  0  0
   -9.8481  -13.8253   41.6330 C   0  0  0  0  0  0  0  0  0  0  0  0
   -9.7146  -14.9474   40.5925 C   0  0  0  0  0  0  0  0  0  0  0  0
  -10.8220  -16.4064   40.8137 S   0  0  0  0  0  0  0  0  0  0  0  0
  -10.1609  -17.5719   39.5500 C   0  0  0  0  0  0  0  0  0  0  0  0
  -10.9893  -17.7439   38.2810 C   0  0  0  0  0  0  0  0  0  0  0  0
  -12.2988  -18.2164   38.3054 C   0  0  0  0  0  0  0  0  0  0  0  0
  -12.9853  -18.4100   37.0994 C   0  0  0  0  0  0  0  0  0  0  0  0
  -12.3487  -18.1637   35.8936 C   0  0  0  0  0  0  0  0  0  0  0  0
  -11.0571  -17.6849   35.9488 C   0  0  0  0  0  0  0  0  0  0  0  0
  -10.3729  -17.4617   37.1044 N   0  0  0  0  0  0  0  0  0  0  0  0
  -12.3069   -9.8876   40.3510 C   0  0  0  0  0  0  0  0  0  0  0  0
  -13.1219   -8.4292   39.9838 S   0  0  0  0  0  0  0  0  0  0  0  0
  -13.0847   -5.1536   43.4937 H   0  0  0  0  0  0  0  0  0  0  0  0
  -11.5862   -5.5843   44.3238 H   0  0  0  0  0  0  0  0  0  0  0  0
  -12.5358   -6.8591   43.5430 H   0  0  0  0  0  0  0  0  0  0  0  0
  -11.3700   -5.6716   40.2647 H   0  0  0  0  0  0  0  0  0  0  0  0
  -14.1741   -5.7743   41.4925 H   0  0  0  0  0  0  0  0  0  0  0  0
  -13.3475   -4.2914   41.0169 H   0  0  0  0  0  0  0  0  0  0  0  0
  -13.7569   -5.5061   39.7952 H   0  0  0  0  0  0  0  0  0  0  0  0
   -9.7545  -10.9973   41.3134 H   0  0  0  0  0  0  0  0  0  0  0  0
   -9.8382  -10.1516   42.8137 H   0  0  0  0  0  0  0  0  0  0  0  0
  -11.5170  -10.2576   43.9852 H   0  0  0  0  0  0  0  0  0  0  0  0
  -12.3684  -11.7313   44.1679 H   0  0  0  0  0  0  0  0  0  0  0  0
  -12.8150  -10.8600   42.7863 H   0  0  0  0  0  0  0  0  0  0  0  0
   -9.0355  -13.1140   41.4405 H   0  0  0  0  0  0  0  0  0  0  0  0
   -9.6632  -14.2505   42.6287 H   0  0  0  0  0  0  0  0  0  0  0  0
   -8.6929  -15.3336   40.6660 H   0  0  0  0  0  0  0  0  0  0  0  0
   -9.8220  -14.5317   39.5912 H   0  0  0  0  0  0  0  0  0  0  0  0
   -9.1412  -17.2709   39.2864 H   0  0  0  0  0  0  0  0  0  0  0  0
  -10.0821  -18.5548   40.0284 H   0  0  0  0  0  0  0  0  0  0  0  0
  -12.7913  -18.4354   39.2488 H   0  0  0  0  0  0  0  0  0  0  0  0
  -14.0124  -18.7650   37.1117 H   0  0  0  0  0  0  0  0  0  0  0  0
  -12.8431  -18.3115   34.9419 H   0  0  0  0  0  0  0  0  0  0  0  0
  -10.5163  -17.4364   35.0380 H   0  0  0  0  0  0  0  0  0  0  0  0
  -12.5996  -10.8272   39.8986 H   0  0  0  0  0  0  0  0  0  0  0  0
  1  2  1  0
  2  3  1  0
  3  4  1  0
  3  5  1  0
  5  6  2  0
  6  7  1  0
  7  8  1  0
  8  9  1  0
  9 10  1  0
  9 11  1  0
 11 12  2  0
 11 13  1  0
 13 14  1  0
 14 15  1  0
 15 16  1  0
 16 17  1  0
 17 18  2  0
 18 19  1  0
 19 20  2  0
 20 21  1  0
 21 22  2  0
  7 23  2  0
 23 24  1  0
 24  5  1  0
 22 17  1  0
  1 25  1  0
  1 26  1  0
  1 27  1  0
  3 28  1  0
  4 29  1  0
  4 30  1  0
  4 31  1  0
  8 32  1  0
  8 33  1  0
 10 34  1  0
 10 35  1  0
 10 36  1  0
 13 37  1  0
 13 38  1  0
 14 39  1  0
 14 40  1  0
 16 41  1  0
 16 42  1  0
 18 43  1  0
 19 44  1  0
 20 45  1  0
 21 46  1  0
 23 47  1  0
M  END
>  <Energy>  (1269) 
149.92707676478838

>  <compound_id>  (1269) 
19145

>  <target_id>  (1269) 
1

>  <reference_id>  (1269) 
82

>  <inspiration_ids>  (1269) 
[7, 82]

>  <energy_score>  (1269) 
15.569479891816172

>  <distance_score>  (1269) 
9.048322182144485

>  <path>  (1269) 
/opt/xchem-fragalysis-2/maxwin/BulkDock/SCRATCH/511023/C19145-P82/C19145-P82.minimised.mol

>  <scratch_subdir>  (1269) 
/opt/xchem-fragalysis-2/maxwin/BulkDock/SCRATCH/511023/C19145-P82

>  <fragmenstein_runtime>  (1269) 
24.15010094642639

>  <fragmenstein_outcome>  (1269) 
too moved

>  <fragmenstein_mode>  (1269) 
expansion

>  <fragmenstein_error>  (1269) 


$$$$
C47143-P7
     RDKit          3D

 25 26  0  0  0  0  0  0  0  0999 V2000
  -16.1252  -13.7712   34.9544 C   0  0  0  0  0  0  0  0  0  0  0  0
  -14.6659  -13.5050   34.5970 C   0  0  0  0  0  0  0  0  0  0  0  0
  -13.8271  -14.8256   34.9106 O   0  0  0  0  0  0  0  0  0  0  0  0
  -14.0088  -16.1040   34.0609 C   0  0  0  0  0  0  0  0  0  0  0  0
  -13.7185  -17.6045   34.6118 C   0  0  0  0  0  0  0  0  0  0  0  0
  -14.5423  -18.7377   34.6956 C   0  0  0  0  0  0  0  0  0  0  0  0
  -13.6952  -19.8688   34.5802 C   0  0  0  0  0  0  0  0  0  0  0  0
  -12.4230  -19.5030   34.5939 N   0  0  0  0  0  0  0  0  0  0  0  0
  -12.4281  -18.1030   34.6390 O   0  0  0  0  0  0  0  0  0  0  0  0
  -14.2230  -11.9517   35.3022 C   0  0  0  0  0  0  0  0  0  0  0  0
  -13.6375  -10.9384   34.6651 N   0  0  0  0  0  0  0  0  0  0  0  0
  -13.6871   -9.8495   35.4919 C   0  0  0  0  0  0  0  0  0  0  0  0
  -14.3187  -10.1020   36.6631 C   0  0  0  0  0  0  0  0  0  0  0  0
  -14.6791  -11.4210   36.5268 N   0  0  0  0  0  0  0  0  0  0  0  0
  -16.7492  -12.8933   34.7592 H   0  0  0  0  0  0  0  0  0  0  0  0
  -16.2193  -14.0346   36.0131 H   0  0  0  0  0  0  0  0  0  0  0  0
  -16.5328  -14.6076   34.3811 H   0  0  0  0  0  0  0  0  0  0  0  0
  -14.5435  -13.3211   33.5341 H   0  0  0  0  0  0  0  0  0  0  0  0
  -15.0711  -16.0835   33.8217 H   0  0  0  0  0  0  0  0  0  0  0  0
  -13.3903  -15.9334   33.1822 H   0  0  0  0  0  0  0  0  0  0  0  0
  -15.6220  -18.7457   34.6703 H   0  0  0  0  0  0  0  0  0  0  0  0
  -13.9530  -20.9116   34.4595 H   0  0  0  0  0  0  0  0  0  0  0  0
  -13.2509   -8.9386   35.2101 H   0  0  0  0  0  0  0  0  0  0  0  0
  -14.5401   -9.5177   37.5438 H   0  0  0  0  0  0  0  0  0  0  0  0
  -15.1988  -11.9487   37.2101 H   0  0  0  0  0  0  0  0  0  0  0  0
  1  2  1  0
  2  3  1  0
  3  4  1  0
  4  5  1  0
  5  6  2  0
  6  7  1  0
  7  8  2  0
  8  9  1  0
  2 10  1  0
 10 11  2  0
 11 12  1  0
 12 13  2  0
 13 14  1  0
  9  5  1  0
 14 10  1  0
  1 15  1  0
  1 16  1  0
  1 17  1  0
  2 18  1  0
  4 19  1  0
  4 20  1  0
  6 21  1  0
  7 22  1  0
 12 23  1  0
 13 24  1  0
 14 25  1  0
M  END
>  <Energy>  (1270) 
86.994973972772286

>  <compound_id>  (1270) 
47143

>  <target_id>  (1270) 
1

>  <reference_id>  (1270) 
7

>  <inspiration_ids>  (1270) 
[7, 82]

>  <energy_score>  (1270) 
40.50023255210226

>  <distance_score>  (1270) 
9.233401574811344

>  <path>  (1270) 
/opt/xchem-fragalysis-2/maxwin/BulkDock/SCRATCH/511023/C47143-P7/C47143-P7.minimised.mol

>  <scratch_subdir>  (1270) 
/opt/xchem-fragalysis-2/maxwin/BulkDock/SCRATCH/511023/C47143-P7

>  <fragmenstein_runtime>  (1270) 
3.3401834964752197

>  <fragmenstein_outcome>  (1270) 
too moved

>  <fragmenstein_mode>  (1270) 
expansion

>  <fragmenstein_error>  (1270) 


$$$$
C47143-P82
     RDKit          3D

 25 26  0  0  0  0  0  0  0  0999 V2000
  -16.4254  -15.8792   36.5904 C   0  0  0  0  0  0  0  0  0  0  0  0
  -15.1162  -15.1180   36.7769 C   0  0  0  0  0  0  0  0  0  0  0  0
  -13.9586  -15.8514   36.3270 O   0  0  0  0  0  0  0  0  0  0  0  0
  -13.9502  -16.2696   34.9561 C   0  0  0  0  0  0  0  0  0  0  0  0
  -13.6227  -17.7212   34.9157 C   0  0  0  0  0  0  0  0  0  0  0  0
  -12.4698  -18.4561   35.0673 C   0  0  0  0  0  0  0  0  0  0  0  0
  -12.8342  -19.7577   34.6887 C   0  0  0  0  0  0  0  0  0  0  0  0
  -14.1326  -19.8419   34.3858 N   0  0  0  0  0  0  0  0  0  0  0  0
  -14.6317  -18.5622   34.5494 O   0  0  0  0  0  0  0  0  0  0  0  0
  -15.1688  -13.7247   36.1967 C   0  0  0  0  0  0  0  0  0  0  0  0
  -15.2164  -13.3878   34.9246 N   0  0  0  0  0  0  0  0  0  0  0  0
  -15.3175  -12.0217   34.8950 C   0  0  0  0  0  0  0  0  0  0  0  0
  -15.3666  -11.5103   36.1689 C   0  0  0  0  0  0  0  0  0  0  0  0
  -15.2349  -12.5954   36.9859 N   0  0  0  0  0  0  0  0  0  0  0  0
  -16.7319  -15.9329   35.5408 H   0  0  0  0  0  0  0  0  0  0  0  0
  -17.2394  -15.3906   37.1369 H   0  0  0  0  0  0  0  0  0  0  0  0
  -16.3276  -16.9076   36.9537 H   0  0  0  0  0  0  0  0  0  0  0  0
  -14.9639  -15.0174   37.8592 H   0  0  0  0  0  0  0  0  0  0  0  0
  -13.1684  -15.7031   34.4403 H   0  0  0  0  0  0  0  0  0  0  0  0
  -14.8941  -16.0699   34.4427 H   0  0  0  0  0  0  0  0  0  0  0  0
  -11.4920  -18.0773   35.3211 H   0  0  0  0  0  0  0  0  0  0  0  0
  -12.2211  -20.6433   34.6077 H   0  0  0  0  0  0  0  0  0  0  0  0
  -15.3517  -11.5045   33.9445 H   0  0  0  0  0  0  0  0  0  0  0  0
  -15.4362  -10.5149   36.5708 H   0  0  0  0  0  0  0  0  0  0  0  0
  -15.1325  -12.5767   37.9902 H   0  0  0  0  0  0  0  0  0  0  0  0
  1  2  1  0
  2  3  1  0
  3  4  1  0
  4  5  1  0
  5  6  2  0
  6  7  1  0
  7  8  2  0
  8  9  1  0
  2 10  1  0
 10 11  2  0
 11 12  1  0
 12 13  2  0
 13 14  1  0
  9  5  1  0
 14 10  1  0
  1 15  1  0
  1 16  1  0
  1 17  1  0
  2 18  1  0
  4 19  1  0
  4 20  1  0
  6 21  1  0
  7 22  1  0
 12 23  1  0
 13 24  1  0
 14 25  1  0
M  END
>  <Energy>  (1271) 
17.88079914352917

>  <compound_id>  (1271) 
47143

>  <target_id>  (1271) 
1

>  <reference_id>  (1271) 
82

>  <inspiration_ids>  (1271) 
[7, 82]

>  <energy_score>  (1271) 
-24.76501262724628

>  <distance_score>  (1271) 
10.225269064446636

>  <path>  (1271) 
/opt/xchem-fragalysis-2/maxwin/BulkDock/SCRATCH/511023/C47143-P82/C47143-P82.minimised.mol

>  <scratch_subdir>  (1271) 
/opt/xchem-fragalysis-2/maxwin/BulkDock/SCRATCH/511023/C47143-P82

>  <fragmenstein_runtime>  (1271) 
5.894843578338623

>  <fragmenstein_outcome>  (1271) 
too moved

>  <fragmenstein_mode>  (1271) 
expansion

>  <fragmenstein_error>  (1271) 


$$$$
C19147-P7
     RDKit          3D

 43 44  0  0  0  0  0  0  0  0999 V2000
  -15.8710   -4.2125   40.3399 C   0  0  0  0  0  0  0  0  0  0  0  0
  -15.6248   -4.5227   38.9795 O   0  0  0  0  0  0  0  0  0  0  0  0
  -15.7075   -3.3997   38.0994 C   0  0  0  0  0  0  0  0  0  0  0  0
  -14.4571   -2.5248   38.1265 C   0  0  0  0  0  0  0  0  0  0  0  0
  -13.3663   -3.0000   37.2975 N   0  0  0  0  0  0  0  0  0  0  0  0
  -12.3673   -2.2241   36.7963 C   0  0  0  0  0  0  0  0  0  0  0  0
  -11.5381   -3.0840   36.1232 C   0  0  0  0  0  0  0  0  0  0  0  0
  -12.1110   -4.3942   36.2596 C   0  0  0  0  0  0  0  0  0  0  0  0
  -11.4784   -5.7274   35.7413 C   0  0  0  0  0  0  0  0  0  0  0  0
  -10.3384   -5.6452   35.3782 O   0  0  0  0  0  0  0  0  0  0  0  0
  -12.0892   -7.3445   35.7293 O   0  0  0  0  0  0  0  0  0  0  0  0
  -13.5833   -8.4402   36.2559 C   0  0  0  0  0  0  0  0  0  0  0  0
  -13.9729   -9.6908   35.3486 C   0  0  0  0  0  0  0  0  0  0  0  0
  -13.4329  -10.9620   35.4871 C   0  0  0  0  0  0  0  0  0  0  0  0
  -14.0926  -12.0554   34.8887 C   0  0  0  0  0  0  0  0  0  0  0  0
  -15.2093  -11.8848   34.0977 C   0  0  0  0  0  0  0  0  0  0  0  0
  -15.6380  -10.5961   33.9389 C   0  0  0  0  0  0  0  0  0  0  0  0
  -15.0734   -9.5321   34.5615 N   0  0  0  0  0  0  0  0  0  0  0  0
  -13.7442   -8.7523   37.8592 C   0  0  0  0  0  0  0  0  0  0  0  0
  -14.3599  -10.1110   38.2421 C   0  0  0  0  0  0  0  0  0  0  0  0
  -14.6831   -7.7087   38.5129 C   0  0  0  0  0  0  0  0  0  0  0  0
  -13.2211   -4.3056   37.0234 N   0  0  0  0  0  0  0  0  0  0  0  0
  -16.8711   -3.7855   40.4618 H   0  0  0  0  0  0  0  0  0  0  0  0
  -15.8199   -5.1401   40.9167 H   0  0  0  0  0  0  0  0  0  0  0  0
  -15.1190   -3.5238   40.7328 H   0  0  0  0  0  0  0  0  0  0  0  0
  -16.5871   -2.8029   38.3694 H   0  0  0  0  0  0  0  0  0  0  0  0
  -15.8876   -3.7912   37.0934 H   0  0  0  0  0  0  0  0  0  0  0  0
  -14.7134   -1.5276   37.7519 H   0  0  0  0  0  0  0  0  0  0  0  0
  -14.0462   -2.4211   39.1350 H   0  0  0  0  0  0  0  0  0  0  0  0
  -12.3254   -1.1573   36.9625 H   0  0  0  0  0  0  0  0  0  0  0  0
  -10.6361   -2.8020   35.6061 H   0  0  0  0  0  0  0  0  0  0  0  0
  -14.4379   -7.7534   36.1389 H   0  0  0  0  0  0  0  0  0  0  0  0
  -12.5654  -11.1181   36.1198 H   0  0  0  0  0  0  0  0  0  0  0  0
  -13.7408  -13.0586   35.0315 H   0  0  0  0  0  0  0  0  0  0  0  0
  -15.7300  -12.7014   33.6207 H   0  0  0  0  0  0  0  0  0  0  0  0
  -16.4886  -10.3561   33.3073 H   0  0  0  0  0  0  0  0  0  0  0  0
  -12.7861   -8.7153   38.3764 H   0  0  0  0  0  0  0  0  0  0  0  0
  -13.6637  -10.9316   38.0637 H   0  0  0  0  0  0  0  0  0  0  0  0
  -14.5822  -10.1460   39.3158 H   0  0  0  0  0  0  0  0  0  0  0  0
  -15.2990  -10.3014   37.7127 H   0  0  0  0  0  0  0  0  0  0  0  0
  -15.7149   -7.8395   38.1662 H   0  0  0  0  0  0  0  0  0  0  0  0
  -14.3974   -6.6824   38.2898 H   0  0  0  0  0  0  0  0  0  0  0  0
  -14.6809   -7.8160   39.6034 H   0  0  0  0  0  0  0  0  0  0  0  0
  1  2  1  0
  2  3  1  0
  3  4  1  0
  4  5  1  0
  5  6  1  0
  6  7  2  0
  7  8  1  0
  8  9  1  0
  9 10  2  0
  9 11  1  0
 11 12  1  0
 12 13  1  0
 13 14  2  0
 14 15  1  0
 15 16  2  0
 16 17  1  0
 17 18  2  0
 12 19  1  0
 19 20  1  0
 19 21  1  0
  8 22  2  0
 22  5  1  0
 18 13  1  0
  1 23  1  0
  1 24  1  0
  1 25  1  0
  3 26  1  0
  3 27  1  0
  4 28  1  0
  4 29  1  0
  6 30  1  0
  7 31  1  0
 12 32  1  0
 14 33  1  0
 15 34  1  0
 16 35  1  0
 17 36  1  0
 19 37  1  0
 20 38  1  0
 20 39  1  0
 20 40  1  0
 21 41  1  0
 21 42  1  0
 21 43  1  0
M  END
>  <Energy>  (1272) 
252.30902393319718

>  <compound_id>  (1272) 
19147

>  <target_id>  (1272) 
1

>  <reference_id>  (1272) 
7

>  <inspiration_ids>  (1272) 
[7, 82]

>  <energy_score>  (1272) 
128.08048787948337

>  <distance_score>  (1272) 
9.702283449022202

>  <path>  (1272) 
/opt/xchem-fragalysis-2/maxwin/BulkDock/SCRATCH/511023/C19147-P7/C19147-P7.minimised.mol

>  <scratch_subdir>  (1272) 
/opt/xchem-fragalysis-2/maxwin/BulkDock/SCRATCH/511023/C19147-P7

>  <fragmenstein_runtime>  (1272) 
13.290890216827393

>  <fragmenstein_outcome>  (1272) 
too moved

>  <fragmenstein_mode>  (1272) 
expansion

>  <fragmenstein_error>  (1272) 


$$$$
C19147-P82
     RDKit          3D

 43 44  0  0  0  0  0  0  0  0999 V2000
  -13.2256   -3.6233   37.6853 C   0  0  0  0  0  0  0  0  0  0  0  0
  -13.1286   -4.4810   36.5458 O   0  0  0  0  0  0  0  0  0  0  0  0
  -11.9027   -4.3104   35.8169 C   0  0  0  0  0  0  0  0  0  0  0  0
  -11.2610   -5.6860   35.1633 C   0  0  0  0  0  0  0  0  0  0  0  0
  -11.0721   -6.8409   34.2266 N   0  0  0  0  0  0  0  0  0  0  0  0
  -11.8479   -7.9073   35.1135 C   0  0  0  0  0  0  0  0  0  0  0  0
  -11.2212   -9.4590   35.0189 C   0  0  0  0  0  0  0  0  0  0  0  0
  -10.0371   -9.4802   34.2873 C   0  0  0  0  0  0  0  0  0  0  0  0
   -8.6715  -11.0979   34.4671 C   0  0  0  0  0  0  0  0  0  0  0  0
   -7.7841  -10.8898   35.2917 O   0  0  0  0  0  0  0  0  0  0  0  0
   -8.8641  -12.5729   33.2965 O   0  0  0  0  0  0  0  0  0  0  0  0
   -8.9562  -14.5166   32.7154 C   0  0  0  0  0  0  0  0  0  0  0  0
  -10.3850  -15.4454   33.4720 C   0  0  0  0  0  0  0  0  0  0  0  0
  -11.7999  -15.2459   33.3825 C   0  0  0  0  0  0  0  0  0  0  0  0
  -12.7612  -15.9545   34.2115 C   0  0  0  0  0  0  0  0  0  0  0  0
  -12.3604  -16.9707   35.0582 C   0  0  0  0  0  0  0  0  0  0  0  0
  -11.0115  -17.2092   35.0646 C   0  0  0  0  0  0  0  0  0  0  0  0
  -10.0891  -16.4836   34.3276 N   0  0  0  0  0  0  0  0  0  0  0  0
   -7.6728  -15.7273   33.6533 C   0  0  0  0  0  0  0  0  0  0  0  0
   -6.7780  -16.8516   33.0804 C   0  0  0  0  0  0  0  0  0  0  0  0
   -7.9074  -16.3424   35.1480 C   0  0  0  0  0  0  0  0  0  0  0  0
   -9.8814   -7.9587   33.4974 N   0  0  0  0  0  0  0  0  0  0  0  0
  -12.5674   -3.9815   38.4818 H   0  0  0  0  0  0  0  0  0  0  0  0
  -12.9671   -2.5898   37.4425 H   0  0  0  0  0  0  0  0  0  0  0  0
  -14.2560   -3.6567   38.0488 H   0  0  0  0  0  0  0  0  0  0  0  0
  -11.1651   -3.8330   36.4748 H   0  0  0  0  0  0  0  0  0  0  0  0
  -12.0068   -3.5677   35.0279 H   0  0  0  0  0  0  0  0  0  0  0  0
  -10.2342   -5.5419   35.3847 H   0  0  0  0  0  0  0  0  0  0  0  0
  -12.0946   -5.4531   34.5222 H   0  0  0  0  0  0  0  0  0  0  0  0
  -12.7688   -7.4674   35.4356 H   0  0  0  0  0  0  0  0  0  0  0  0
  -11.6134  -10.3085   35.5955 H   0  0  0  0  0  0  0  0  0  0  0  0
   -8.6505  -14.5747   31.7055 H   0  0  0  0  0  0  0  0  0  0  0  0
  -12.2736  -14.6490   32.6298 H   0  0  0  0  0  0  0  0  0  0  0  0
  -13.8215  -15.7635   34.1194 H   0  0  0  0  0  0  0  0  0  0  0  0
  -13.0506  -17.5473   35.6560 H   0  0  0  0  0  0  0  0  0  0  0  0
  -10.5873  -17.9622   35.7128 H   0  0  0  0  0  0  0  0  0  0  0  0
   -6.9528  -15.0318   34.0389 H   0  0  0  0  0  0  0  0  0  0  0  0
   -5.8729  -16.4977   32.5894 H   0  0  0  0  0  0  0  0  0  0  0  0
   -6.4366  -17.4711   33.8957 H   0  0  0  0  0  0  0  0  0  0  0  0
   -7.2268  -17.5962   32.4533 H   0  0  0  0  0  0  0  0  0  0  0  0
   -8.2231  -17.3925   35.1165 H   0  0  0  0  0  0  0  0  0  0  0  0
   -8.5352  -15.7735   35.8311 H   0  0  0  0  0  0  0  0  0  0  0  0
   -6.9633  -16.3882   35.6761 H   0  0  0  0  0  0  0  0  0  0  0  0
  1  2  1  0
  2  3  1  0
  3  4  1  0
  4  5  1  0
  5  6  1  0
  6  7  2  0
  7  8  1  0
  8  9  1  0
  9 10  2  0
  9 11  1  0
 11 12  1  0
 12 13  1  0
 13 14  2  0
 14 15  1  0
 15 16  2  0
 16 17  1  0
 17 18  2  0
 12 19  1  0
 19 20  1  0
 19 21  1  0
  8 22  2  0
 22  5  1  0
 18 13  1  0
  1 23  1  0
  1 24  1  0
  1 25  1  0
  3 26  1  0
  3 27  1  0
  4 28  1  0
  4 29  1  0
  6 30  1  0
  7 31  1  0
 12 32  1  0
 14 33  1  0
 15 34  1  0
 16 35  1  0
 17 36  1  0
 19 37  1  0
 20 38  1  0
 20 39  1  0
 20 40  1  0
 21 41  1  0
 21 42  1  0
 21 43  1  0
M  END
>  <Energy>  (1273) 
883.08278926279945

>  <compound_id>  (1273) 
19147

>  <target_id>  (1273) 
1

>  <reference_id>  (1273) 
82

>  <inspiration_ids>  (1273) 
[7, 82]

>  <energy_score>  (1273) 
758.8542532090755

>  <distance_score>  (1273) 
7.96444193124651

>  <path>  (1273) 
/opt/xchem-fragalysis-2/maxwin/BulkDock/SCRATCH/511023/C19147-P82/C19147-P82.minimised.mol

>  <scratch_subdir>  (1273) 
/opt/xchem-fragalysis-2/maxwin/BulkDock/SCRATCH/511023/C19147-P82

>  <fragmenstein_runtime>  (1273) 
9.630414962768555

>  <fragmenstein_outcome>  (1273) 
too moved

>  <fragmenstein_mode>  (1273) 
expansion

>  <fragmenstein_error>  (1273) 


$$$$
C19149-P7
     RDKit          3D

 43 44  0  0  0  0  0  0  0  0999 V2000
  -13.8374   -2.0218   38.4575 C   0  0  0  0  0  0  0  0  0  0  0  0
  -12.8955   -2.0381   37.3848 O   0  0  0  0  0  0  0  0  0  0  0  0
  -13.2698   -2.9425   36.3311 C   0  0  0  0  0  0  0  0  0  0  0  0
  -12.8700   -4.4198   36.6300 C   0  0  0  0  0  0  0  0  0  0  0  0
  -11.3771   -5.2497   36.0916 N   0  0  0  0  0  0  0  0  0  0  0  0
  -10.3711   -4.7062   36.7663 N   0  0  0  0  0  0  0  0  0  0  0  0
  -10.5979   -3.6285   36.0885 C   0  0  0  0  0  0  0  0  0  0  0  0
  -11.2138   -4.4519   34.9443 C   0  0  0  0  0  0  0  0  0  0  0  0
  -10.9076   -6.2477   34.7679 C   0  0  0  0  0  0  0  0  0  0  0  0
   -9.9269   -7.5593   33.5643 C   0  0  0  0  0  0  0  0  0  0  0  0
   -8.9419   -7.1069   32.9866 O   0  0  0  0  0  0  0  0  0  0  0  0
  -10.0716   -9.4878   33.2082 O   0  0  0  0  0  0  0  0  0  0  0  0
   -9.4388  -11.3913   32.4616 C   0  0  0  0  0  0  0  0  0  0  0  0
   -9.9025  -13.5354   32.9632 C   0  0  0  0  0  0  0  0  0  0  0  0
  -11.6633  -14.6714   32.7398 C   0  0  0  0  0  0  0  0  0  0  0  0
   -8.6758  -14.5863   32.3077 C   0  0  0  0  0  0  0  0  0  0  0  0
  -10.6349  -15.1555   33.9754 C   0  0  0  0  0  0  0  0  0  0  0  0
  -12.1588  -15.6563   34.5421 C   0  0  0  0  0  0  0  0  0  0  0  0
  -12.5341  -16.8760   35.0842 C   0  0  0  0  0  0  0  0  0  0  0  0
  -11.5475  -17.7791   34.9971 C   0  0  0  0  0  0  0  0  0  0  0  0
  -10.2875  -17.3462   34.4746 C   0  0  0  0  0  0  0  0  0  0  0  0
   -9.7891  -16.1627   34.1465 N   0  0  0  0  0  0  0  0  0  0  0  0
  -13.4543   -1.3549   39.2346 H   0  0  0  0  0  0  0  0  0  0  0  0
  -13.9713   -3.0177   38.8884 H   0  0  0  0  0  0  0  0  0  0  0  0
  -14.7982   -1.6308   38.1091 H   0  0  0  0  0  0  0  0  0  0  0  0
  -12.8647   -2.5234   35.4092 H   0  0  0  0  0  0  0  0  0  0  0  0
  -14.3597   -2.9365   36.2688 H   0  0  0  0  0  0  0  0  0  0  0  0
  -13.6732   -5.1442   36.5038 H   0  0  0  0  0  0  0  0  0  0  0  0
  -12.5925   -4.2574   37.6798 H   0  0  0  0  0  0  0  0  0  0  0  0
  -10.3642   -2.5864   36.2653 H   0  0  0  0  0  0  0  0  0  0  0  0
  -11.4144   -3.7154   34.1336 H   0  0  0  0  0  0  0  0  0  0  0  0
   -9.5964  -10.9448   31.5039 H   0  0  0  0  0  0  0  0  0  0  0  0
   -8.3582  -11.3367   32.5993 H   0  0  0  0  0  0  0  0  0  0  0  0
  -12.6060  -14.1704   33.0003 H   0  0  0  0  0  0  0  0  0  0  0  0
  -11.3044  -15.4741   32.0905 H   0  0  0  0  0  0  0  0  0  0  0  0
  -12.2924  -14.7317   31.7907 H   0  0  0  0  0  0  0  0  0  0  0  0
   -8.6007  -15.6055   32.6565 H   0  0  0  0  0  0  0  0  0  0  0  0
   -7.7599  -14.1164   32.6043 H   0  0  0  0  0  0  0  0  0  0  0  0
   -8.6343  -14.5502   31.2471 H   0  0  0  0  0  0  0  0  0  0  0  0
  -13.0563  -15.0391   34.4456 H   0  0  0  0  0  0  0  0  0  0  0  0
  -13.5408  -17.1245   35.3833 H   0  0  0  0  0  0  0  0  0  0  0  0
  -11.7981  -18.8245   35.1275 H   0  0  0  0  0  0  0  0  0  0  0  0
   -9.6261  -18.0502   33.9561 H   0  0  0  0  0  0  0  0  0  0  0  0
  1  2  1  0
  2  3  1  0
  3  4  1  0
  4  5  1  0
  5  6  1  0
  6  7  2  0
  7  8  1  0
  8  9  2  0
  9 10  1  0
 10 11  2  0
 10 12  1  0
 12 13  1  0
 13 14  1  0
 14 15  1  0
 14 16  1  0
 14 17  1  0
 17 18  2  0
 18 19  1  0
 19 20  2  0
 20 21  1  0
 21 22  2  0
  9  5  1  0
 22 17  1  0
  1 23  1  0
  1 24  1  0
  1 25  1  0
  3 26  1  0
  3 27  1  0
  4 28  1  0
  4 29  1  0
  7 30  1  0
  8 31  1  0
 13 32  1  0
 13 33  1  0
 15 34  1  0
 15 35  1  0
 15 36  1  0
 16 37  1  0
 16 38  1  0
 16 39  1  0
 18 40  1  0
 19 41  1  0
 20 42  1  0
 21 43  1  0
M  END
>  <Energy>  (1274) 
1466.3529182843615

>  <compound_id>  (1274) 
19149

>  <target_id>  (1274) 
1

>  <reference_id>  (1274) 
7

>  <inspiration_ids>  (1274) 
[7, 82]

>  <energy_score>  (1274) 
1398.8436947531868

>  <distance_score>  (1274) 
6.455369621266841

>  <path>  (1274) 
/opt/xchem-fragalysis-2/maxwin/BulkDock/SCRATCH/511023/C19149-P7/C19149-P7.minimised.mol

>  <scratch_subdir>  (1274) 
/opt/xchem-fragalysis-2/maxwin/BulkDock/SCRATCH/511023/C19149-P7

>  <fragmenstein_runtime>  (1274) 
9.500103235244751

>  <fragmenstein_outcome>  (1274) 
too moved

>  <fragmenstein_mode>  (1274) 
expansion

>  <fragmenstein_error>  (1274) 


$$$$
C19149-P82
     RDKit          3D

 43 44  0  0  0  0  0  0  0  0999 V2000
  -15.4730   -3.5415   37.9628 C   0  0  0  0  0  0  0  0  0  0  0  0
  -16.1441   -4.6854   38.4662 O   0  0  0  0  0  0  0  0  0  0  0  0
  -16.3283   -5.6973   37.4782 C   0  0  0  0  0  0  0  0  0  0  0  0
  -16.7128   -7.0326   38.1243 C   0  0  0  0  0  0  0  0  0  0  0  0
  -15.5983   -7.7644   38.7126 N   0  0  0  0  0  0  0  0  0  0  0  0
  -14.8067   -7.0922   39.5793 N   0  0  0  0  0  0  0  0  0  0  0  0
  -13.8718   -7.9657   39.9330 C   0  0  0  0  0  0  0  0  0  0  0  0
  -14.0607   -9.2047   39.3075 C   0  0  0  0  0  0  0  0  0  0  0  0
  -15.2075   -9.0854   38.5287 C   0  0  0  0  0  0  0  0  0  0  0  0
  -15.8293  -10.0942   37.6803 C   0  0  0  0  0  0  0  0  0  0  0  0
  -16.8883   -9.9715   37.0798 O   0  0  0  0  0  0  0  0  0  0  0  0
  -15.0263  -11.1906   37.5986 O   0  0  0  0  0  0  0  0  0  0  0  0
  -15.2912  -12.2507   36.6272 C   0  0  0  0  0  0  0  0  0  0  0  0
  -15.7168  -13.6073   37.3072 C   0  0  0  0  0  0  0  0  0  0  0  0
  -17.2624  -13.5674   37.3423 C   0  0  0  0  0  0  0  0  0  0  0  0
  -15.3034  -13.6032   38.8030 C   0  0  0  0  0  0  0  0  0  0  0  0
  -15.1825  -14.9120   36.5745 C   0  0  0  0  0  0  0  0  0  0  0  0
  -15.5168  -16.1878   37.0645 C   0  0  0  0  0  0  0  0  0  0  0  0
  -14.9835  -17.3500   36.4838 C   0  0  0  0  0  0  0  0  0  0  0  0
  -14.1050  -17.2427   35.4213 C   0  0  0  0  0  0  0  0  0  0  0  0
  -13.8258  -15.9690   34.9682 C   0  0  0  0  0  0  0  0  0  0  0  0
  -14.3523  -14.8179   35.4933 N   0  0  0  0  0  0  0  0  0  0  0  0
  -14.4590   -3.8022   37.6458 H   0  0  0  0  0  0  0  0  0  0  0  0
  -15.4053   -2.8008   38.7641 H   0  0  0  0  0  0  0  0  0  0  0  0
  -16.0328   -3.1051   37.1304 H   0  0  0  0  0  0  0  0  0  0  0  0
  -15.4370   -5.8167   36.8601 H   0  0  0  0  0  0  0  0  0  0  0  0
  -17.1473   -5.3705   36.8270 H   0  0  0  0  0  0  0  0  0  0  0  0
  -17.4375   -6.8836   38.9326 H   0  0  0  0  0  0  0  0  0  0  0  0
  -17.1676   -7.6650   37.3612 H   0  0  0  0  0  0  0  0  0  0  0  0
  -13.0922   -7.6608   40.6197 H   0  0  0  0  0  0  0  0  0  0  0  0
  -13.4445  -10.0898   39.4052 H   0  0  0  0  0  0  0  0  0  0  0  0
  -14.3714  -12.3613   36.0499 H   0  0  0  0  0  0  0  0  0  0  0  0
  -16.0348  -11.9180   35.8924 H   0  0  0  0  0  0  0  0  0  0  0  0
  -17.6711  -13.3875   36.3478 H   0  0  0  0  0  0  0  0  0  0  0  0
  -17.6953  -14.4827   37.7571 H   0  0  0  0  0  0  0  0  0  0  0  0
  -17.6271  -12.7363   37.9593 H   0  0  0  0  0  0  0  0  0  0  0  0
  -15.9706  -12.9739   39.4060 H   0  0  0  0  0  0  0  0  0  0  0  0
  -14.3159  -13.1724   38.9477 H   0  0  0  0  0  0  0  0  0  0  0  0
  -15.3181  -14.5981   39.2572 H   0  0  0  0  0  0  0  0  0  0  0  0
  -16.1806  -16.2965   37.9174 H   0  0  0  0  0  0  0  0  0  0  0  0
  -15.2438  -18.3259   36.8848 H   0  0  0  0  0  0  0  0  0  0  0  0
  -13.6407  -18.1126   34.9721 H   0  0  0  0  0  0  0  0  0  0  0  0
  -13.1299  -15.8293   34.1429 H   0  0  0  0  0  0  0  0  0  0  0  0
  1  2  1  0
  2  3  1  0
  3  4  1  0
  4  5  1  0
  5  6  1  0
  6  7  2  0
  7  8  1  0
  8  9  2  0
  9 10  1  0
 10 11  2  0
 10 12  1  0
 12 13  1  0
 13 14  1  0
 14 15  1  0
 14 16  1  0
 14 17  1  0
 17 18  2  0
 18 19  1  0
 19 20  2  0
 20 21  1  0
 21 22  2  0
  9  5  1  0
 22 17  1  0
  1 23  1  0
  1 24  1  0
  1 25  1  0
  3 26  1  0
  3 27  1  0
  4 28  1  0
  4 29  1  0
  7 30  1  0
  8 31  1  0
 13 32  1  0
 13 33  1  0
 15 34  1  0
 15 35  1  0
 15 36  1  0
 16 37  1  0
 16 38  1  0
 16 39  1  0
 18 40  1  0
 19 41  1  0
 20 42  1  0
 21 43  1  0
M  END
>  <Energy>  (1275) 
48.756399945383095

>  <compound_id>  (1275) 
19149

>  <target_id>  (1275) 
1

>  <reference_id>  (1275) 
82

>  <inspiration_ids>  (1275) 
[7, 82]

>  <energy_score>  (1275) 
-18.75282358578852

>  <distance_score>  (1275) 
8.568224548994783

>  <path>  (1275) 
/opt/xchem-fragalysis-2/maxwin/BulkDock/SCRATCH/511023/C19149-P82/C19149-P82.minimised.mol

>  <scratch_subdir>  (1275) 
/opt/xchem-fragalysis-2/maxwin/BulkDock/SCRATCH/511023/C19149-P82

>  <fragmenstein_runtime>  (1275) 
13.608255863189697

>  <fragmenstein_outcome>  (1275) 
too moved

>  <fragmenstein_mode>  (1275) 
expansion

>  <fragmenstein_error>  (1275) 


$$$$
C47144-P7
     RDKit          3D

 45 46  0  0  0  0  0  0  0  0999 V2000
  -11.4405   -4.6769   35.8583 C   0  0  0  0  0  0  0  0  0  0  0  0
  -10.7698   -5.8941   35.4838 O   0  0  0  0  0  0  0  0  0  0  0  0
  -11.3143   -7.2296   34.6963 C   0  0  0  0  0  0  0  0  0  0  0  0
  -11.7792   -9.2662   34.7903 C   0  0  0  0  0  0  0  0  0  0  0  0
  -13.3450   -9.8786   34.7207 N   0  0  0  0  0  0  0  0  0  0  0  0
  -13.6106  -10.7424   33.6088 N   0  0  0  0  0  0  0  0  0  0  0  0
  -14.7704  -11.3026   33.2749 C   0  0  0  0  0  0  0  0  0  0  0  0
  -15.0813  -12.5020   31.8892 C   0  0  0  0  0  0  0  0  0  0  0  0
  -16.1699  -13.0614   32.0548 O   0  0  0  0  0  0  0  0  0  0  0  0
  -13.8533  -12.7991   30.6765 N   0  0  0  0  0  0  0  0  0  0  0  0
  -13.7287  -14.0847   29.3883 C   0  0  0  0  0  0  0  0  0  0  0  0
  -14.5787  -13.7797   28.1754 C   0  0  0  0  0  0  0  0  0  0  0  0
  -12.3987  -15.3259   28.8317 C   0  0  0  0  0  0  0  0  0  0  0  0
  -11.8538  -16.7837   29.3549 N   0  0  0  0  0  0  0  0  0  0  0  0
  -12.1783  -18.4571   28.8302 C   0  0  0  0  0  0  0  0  0  0  0  0
  -12.0953  -20.4259   29.1075 C   0  0  0  0  0  0  0  0  0  0  0  0
  -11.8252  -21.3708   30.2518 C   0  0  0  0  0  0  0  0  0  0  0  0
  -11.5484  -22.5969   29.7203 C   0  0  0  0  0  0  0  0  0  0  0  0
  -11.6536  -22.5238   28.3956 O   0  0  0  0  0  0  0  0  0  0  0  0
  -12.0535  -21.2890   28.0443 N   0  0  0  0  0  0  0  0  0  0  0  0
  -15.8360  -11.1498   34.3010 C   0  0  0  0  0  0  0  0  0  0  0  0
  -15.6246  -10.3562   35.3677 C   0  0  0  0  0  0  0  0  0  0  0  0
  -14.3386   -9.6471   35.6486 C   0  0  0  0  0  0  0  0  0  0  0  0
  -14.2315   -8.9605   36.6585 O   0  0  0  0  0  0  0  0  0  0  0  0
  -11.4244   -3.9225   35.0697 H   0  0  0  0  0  0  0  0  0  0  0  0
  -12.4594   -4.7645   36.2255 H   0  0  0  0  0  0  0  0  0  0  0  0
  -10.8646   -4.2317   36.6760 H   0  0  0  0  0  0  0  0  0  0  0  0
  -10.4580   -7.1223   33.9991 H   0  0  0  0  0  0  0  0  0  0  0  0
  -11.7500   -7.2473   35.6082 H   0  0  0  0  0  0  0  0  0  0  0  0
  -11.2758  -10.0104   35.4499 H   0  0  0  0  0  0  0  0  0  0  0  0
  -11.2945   -9.5969   33.8629 H   0  0  0  0  0  0  0  0  0  0  0  0
  -13.1310  -12.1248   30.7588 H   0  0  0  0  0  0  0  0  0  0  0  0
  -13.8400  -14.9385   30.0087 H   0  0  0  0  0  0  0  0  0  0  0  0
  -14.7049  -14.6584   27.5358 H   0  0  0  0  0  0  0  0  0  0  0  0
  -14.0995  -12.9973   27.5786 H   0  0  0  0  0  0  0  0  0  0  0  0
  -15.5751  -13.4234   28.4450 H   0  0  0  0  0  0  0  0  0  0  0  0
  -11.4919  -14.7141   28.8287 H   0  0  0  0  0  0  0  0  0  0  0  0
  -12.6513  -15.5273   27.7850 H   0  0  0  0  0  0  0  0  0  0  0  0
  -11.7863  -16.8311   30.3760 H   0  0  0  0  0  0  0  0  0  0  0  0
  -11.1708  -18.3961   29.1661 H   0  0  0  0  0  0  0  0  0  0  0  0
  -13.1004  -18.4897   29.3178 H   0  0  0  0  0  0  0  0  0  0  0  0
  -11.7564  -21.1892   31.3165 H   0  0  0  0  0  0  0  0  0  0  0  0
  -11.2789  -23.5604   30.1152 H   0  0  0  0  0  0  0  0  0  0  0  0
  -16.7181  -11.7668   34.1951 H   0  0  0  0  0  0  0  0  0  0  0  0
  -16.3710  -10.2543   36.1470 H   0  0  0  0  0  0  0  0  0  0  0  0
  1  2  1  0
  2  3  1  0
  3  4  1  0
  4  5  1  0
  5  6  1  0
  6  7  2  0
  7  8  1  0
  8  9  2  0
  8 10  1  0
 10 11  1  0
 11 12  1  0
 11 13  1  0
 13 14  1  0
 14 15  1  0
 15 16  1  0
 16 17  1  0
 17 18  2  0
 18 19  1  0
 19 20  1  0
  7 21  1  0
 21 22  2  0
 22 23  1  0
 23 24  2  0
 23  5  1  0
 20 16  2  0
  1 25  1  0
  1 26  1  0
  1 27  1  0
  3 28  1  0
  3 29  1  0
  4 30  1  0
  4 31  1  0
 10 32  1  0
 11 33  1  0
 12 34  1  0
 12 35  1  0
 12 36  1  0
 13 37  1  0
 13 38  1  0
 14 39  1  0
 15 40  1  0
 15 41  1  0
 17 42  1  0
 18 43  1  0
 21 44  1  0
 22 45  1  0
M  END
>  <Energy>  (1276) 
715.04118927905733

>  <compound_id>  (1276) 
47144

>  <target_id>  (1276) 
1

>  <reference_id>  (1276) 
7

>  <inspiration_ids>  (1276) 
[7, 82]

>  <energy_score>  (1276) 
560.2934139213671

>  <distance_score>  (1276) 
9.286406504681722

>  <path>  (1276) 
/opt/xchem-fragalysis-2/maxwin/BulkDock/SCRATCH/511023/C47144-P7/C47144-P7.minimised.mol

>  <scratch_subdir>  (1276) 
/opt/xchem-fragalysis-2/maxwin/BulkDock/SCRATCH/511023/C47144-P7

>  <fragmenstein_runtime>  (1276) 
15.6885347366333

>  <fragmenstein_outcome>  (1276) 
too moved

>  <fragmenstein_mode>  (1276) 
expansion

>  <fragmenstein_error>  (1276) 


$$$$
C47144-P82
     RDKit          3D

 45 46  0  0  0  0  0  0  0  0999 V2000
  -15.4523   -9.0888   38.7433 C   0  0  0  0  0  0  0  0  0  0  0  0
  -14.3005   -9.9238   38.7164 O   0  0  0  0  0  0  0  0  0  0  0  0
  -13.9860  -10.4622   37.4152 C   0  0  0  0  0  0  0  0  0  0  0  0
  -14.8460  -11.6611   36.9847 C   0  0  0  0  0  0  0  0  0  0  0  0
  -14.8192  -12.1562   35.5700 N   0  0  0  0  0  0  0  0  0  0  0  0
  -13.8603  -13.1843   35.1705 N   0  0  0  0  0  0  0  0  0  0  0  0
  -14.2576  -14.1762   34.3997 C   0  0  0  0  0  0  0  0  0  0  0  0
  -13.2391  -15.4357   33.9457 C   0  0  0  0  0  0  0  0  0  0  0  0
  -13.0944  -16.2251   34.8439 O   0  0  0  0  0  0  0  0  0  0  0  0
  -12.6431  -15.4107   32.5576 N   0  0  0  0  0  0  0  0  0  0  0  0
  -11.7541  -16.4299   31.8285 C   0  0  0  0  0  0  0  0  0  0  0  0
  -10.3451  -16.3899   32.4338 C   0  0  0  0  0  0  0  0  0  0  0  0
  -11.6007  -16.7669   29.9867 C   0  0  0  0  0  0  0  0  0  0  0  0
  -12.0310  -18.1633   28.9019 N   0  0  0  0  0  0  0  0  0  0  0  0
  -12.2711  -20.0788   29.0332 C   0  0  0  0  0  0  0  0  0  0  0  0
  -11.7595  -21.3318   29.9123 C   0  0  0  0  0  0  0  0  0  0  0  0
  -11.8356  -22.6857   29.4532 C   0  0  0  0  0  0  0  0  0  0  0  0
  -11.8123  -23.4441   30.5939 C   0  0  0  0  0  0  0  0  0  0  0  0
  -11.6467  -22.6331   31.6647 O   0  0  0  0  0  0  0  0  0  0  0  0
  -11.5812  -21.3188   31.2432 N   0  0  0  0  0  0  0  0  0  0  0  0
  -15.6934  -14.3090   34.0851 C   0  0  0  0  0  0  0  0  0  0  0  0
  -16.4821  -13.2380   34.1991 C   0  0  0  0  0  0  0  0  0  0  0  0
  -16.0448  -12.0321   34.9170 C   0  0  0  0  0  0  0  0  0  0  0  0
  -16.8518  -11.1123   35.0581 O   0  0  0  0  0  0  0  0  0  0  0  0
  -15.5785   -8.7190   39.7645 H   0  0  0  0  0  0  0  0  0  0  0  0
  -15.3307   -8.2294   38.0805 H   0  0  0  0  0  0  0  0  0  0  0  0
  -16.3494   -9.6494   38.4695 H   0  0  0  0  0  0  0  0  0  0  0  0
  -12.9219  -10.6947   37.4237 H   0  0  0  0  0  0  0  0  0  0  0  0
  -14.0987   -9.6607   36.7223 H   0  0  0  0  0  0  0  0  0  0  0  0
  -15.8860  -11.3966   37.2128 H   0  0  0  0  0  0  0  0  0  0  0  0
  -14.6967  -12.5196   37.6491 H   0  0  0  0  0  0  0  0  0  0  0  0
  -13.0489  -14.6419   32.0342 H   0  0  0  0  0  0  0  0  0  0  0  0
  -12.2324  -17.2643   32.3268 H   0  0  0  0  0  0  0  0  0  0  0  0
   -9.9559  -17.3844   32.6608 H   0  0  0  0  0  0  0  0  0  0  0  0
   -9.6382  -15.8790   31.7741 H   0  0  0  0  0  0  0  0  0  0  0  0
  -10.3493  -15.8613   33.3913 H   0  0  0  0  0  0  0  0  0  0  0  0
  -12.1082  -15.9248   29.4940 H   0  0  0  0  0  0  0  0  0  0  0  0
  -10.5362  -16.6453   29.7483 H   0  0  0  0  0  0  0  0  0  0  0  0
  -12.8184  -17.7368   28.4540 H   0  0  0  0  0  0  0  0  0  0  0  0
  -13.3178  -20.1926   29.0534 H   0  0  0  0  0  0  0  0  0  0  0  0
  -12.1444  -20.6482   28.0882 H   0  0  0  0  0  0  0  0  0  0  0  0
  -12.0308  -23.0407   28.4531 H   0  0  0  0  0  0  0  0  0  0  0  0
  -11.9180  -24.4964   30.8127 H   0  0  0  0  0  0  0  0  0  0  0  0
  -16.0446  -15.2581   33.7128 H   0  0  0  0  0  0  0  0  0  0  0  0
  -17.5235  -13.2591   33.9030 H   0  0  0  0  0  0  0  0  0  0  0  0
  1  2  1  0
  2  3  1  0
  3  4  1  0
  4  5  1  0
  5  6  1  0
  6  7  2  0
  7  8  1  0
  8  9  2  0
  8 10  1  0
 10 11  1  0
 11 12  1  0
 11 13  1  0
 13 14  1  0
 14 15  1  0
 15 16  1  0
 16 17  1  0
 17 18  2  0
 18 19  1  0
 19 20  1  0
  7 21  1  0
 21 22  2  0
 22 23  1  0
 23 24  2  0
 23  5  1  0
 20 16  2  0
  1 25  1  0
  1 26  1  0
  1 27  1  0
  3 28  1  0
  3 29  1  0
  4 30  1  0
  4 31  1  0
 10 32  1  0
 11 33  1  0
 12 34  1  0
 12 35  1  0
 12 36  1  0
 13 37  1  0
 13 38  1  0
 14 39  1  0
 15 40  1  0
 15 41  1  0
 17 42  1  0
 18 43  1  0
 21 44  1  0
 22 45  1  0
M  END
>  <Energy>  (1277) 
381.08689525120252

>  <compound_id>  (1277) 
47144

>  <target_id>  (1277) 
1

>  <reference_id>  (1277) 
82

>  <inspiration_ids>  (1277) 
[7, 82]

>  <energy_score>  (1277) 
226.3391198935272

>  <distance_score>  (1277) 
10.03195096333497

>  <path>  (1277) 
/opt/xchem-fragalysis-2/maxwin/BulkDock/SCRATCH/511023/C47144-P82/C47144-P82.minimised.mol

>  <scratch_subdir>  (1277) 
/opt/xchem-fragalysis-2/maxwin/BulkDock/SCRATCH/511023/C47144-P82

>  <fragmenstein_runtime>  (1277) 
14.14660120010376

>  <fragmenstein_outcome>  (1277) 
too moved

>  <fragmenstein_mode>  (1277) 
expansion

>  <fragmenstein_error>  (1277) 


$$$$
C44711-P7
     RDKit          3D

 41 42  0  0  0  0  0  0  0  0999 V2000
  -14.1123   -3.4213   37.8623 C   0  0  0  0  0  0  0  0  0  0  0  0
  -14.5101   -4.7735   38.0268 O   0  0  0  0  0  0  0  0  0  0  0  0
  -15.5335   -5.1394   37.1032 C   0  0  0  0  0  0  0  0  0  0  0  0
  -16.2085   -6.4664   37.4630 C   0  0  0  0  0  0  0  0  0  0  0  0
  -15.3652   -7.6653   37.4187 N   0  0  0  0  0  0  0  0  0  0  0  0
  -15.7132   -8.6331   36.4610 N   0  0  0  0  0  0  0  0  0  0  0  0
  -15.2018   -9.8397   36.5439 C   0  0  0  0  0  0  0  0  0  0  0  0
  -15.7572  -10.9411   35.5232 C   0  0  0  0  0  0  0  0  0  0  0  0
  -16.7772  -10.6073   34.9850 O   0  0  0  0  0  0  0  0  0  0  0  0
  -14.9467  -12.1446   35.3605 N   0  0  0  0  0  0  0  0  0  0  0  0
  -15.0729  -13.2804   34.4153 C   0  0  0  0  0  0  0  0  0  0  0  0
  -15.8386  -14.6135   34.7784 C   0  0  0  0  0  0  0  0  0  0  0  0
  -16.8855  -14.3555   35.8691 C   0  0  0  0  0  0  0  0  0  0  0  0
  -15.0185  -15.8184   35.0117 N   0  0  0  0  0  0  0  0  0  0  0  0
  -13.9691  -16.2912   34.2679 C   0  0  0  0  0  0  0  0  0  0  0  0
  -13.5595  -17.4726   34.8447 C   0  0  0  0  0  0  0  0  0  0  0  0
  -14.4160  -17.6451   35.9331 C   0  0  0  0  0  0  0  0  0  0  0  0
  -15.2801  -16.6350   36.0581 N   0  0  0  0  0  0  0  0  0  0  0  0
  -14.1862  -10.1782   37.5654 C   0  0  0  0  0  0  0  0  0  0  0  0
  -13.9103   -9.2631   38.4989 C   0  0  0  0  0  0  0  0  0  0  0  0
  -14.6105   -7.9682   38.5471 C   0  0  0  0  0  0  0  0  0  0  0  0
  -14.4988   -7.2768   39.5539 O   0  0  0  0  0  0  0  0  0  0  0  0
  -13.3117   -3.2089   38.5758 H   0  0  0  0  0  0  0  0  0  0  0  0
  -13.7308   -3.2531   36.8512 H   0  0  0  0  0  0  0  0  0  0  0  0
  -14.9485   -2.7458   38.0670 H   0  0  0  0  0  0  0  0  0  0  0  0
  -16.3102   -4.3647   37.1106 H   0  0  0  0  0  0  0  0  0  0  0  0
  -15.1169   -5.1800   36.0987 H   0  0  0  0  0  0  0  0  0  0  0  0
  -17.0532   -6.6243   36.7814 H   0  0  0  0  0  0  0  0  0  0  0  0
  -16.6210   -6.3898   38.4766 H   0  0  0  0  0  0  0  0  0  0  0  0
  -14.1971  -12.1310   36.0348 H   0  0  0  0  0  0  0  0  0  0  0  0
  -14.0575  -13.5114   34.0975 H   0  0  0  0  0  0  0  0  0  0  0  0
  -15.5924  -12.8463   33.5519 H   0  0  0  0  0  0  0  0  0  0  0  0
  -16.3959  -14.8976   33.8741 H   0  0  0  0  0  0  0  0  0  0  0  0
  -16.4148  -14.1326   36.8324 H   0  0  0  0  0  0  0  0  0  0  0  0
  -17.5370  -15.2255   36.0080 H   0  0  0  0  0  0  0  0  0  0  0  0
  -17.5291  -13.5120   35.5976 H   0  0  0  0  0  0  0  0  0  0  0  0
  -13.5930  -15.7714   33.3993 H   0  0  0  0  0  0  0  0  0  0  0  0
  -12.7496  -18.1141   34.5279 H   0  0  0  0  0  0  0  0  0  0  0  0
  -14.4384  -18.4467   36.6586 H   0  0  0  0  0  0  0  0  0  0  0  0
  -13.6846  -11.1309   37.5954 H   0  0  0  0  0  0  0  0  0  0  0  0
  -13.1974   -9.4491   39.2942 H   0  0  0  0  0  0  0  0  0  0  0  0
  1  2  1  0
  2  3  1  0
  3  4  1  0
  4  5  1  0
  5  6  1  0
  6  7  2  0
  7  8  1  0
  8  9  2  0
  8 10  1  0
 10 11  1  0
 11 12  1  0
 12 13  1  0
 12 14  1  0
 14 15  1  0
 15 16  2  0
 16 17  1  0
 17 18  2  0
  7 19  1  0
 19 20  2  0
 20 21  1  0
 21 22  2  0
 21  5  1  0
 18 14  1  0
  1 23  1  0
  1 24  1  0
  1 25  1  0
  3 26  1  0
  3 27  1  0
  4 28  1  0
  4 29  1  0
 10 30  1  0
 11 31  1  0
 11 32  1  0
 12 33  1  0
 13 34  1  0
 13 35  1  0
 13 36  1  0
 15 37  1  0
 16 38  1  0
 17 39  1  0
 19 40  1  0
 20 41  1  0
M  END
>  <Energy>  (1278) 
130.76345066163356

>  <compound_id>  (1278) 
44711

>  <target_id>  (1278) 
1

>  <reference_id>  (1278) 
7

>  <inspiration_ids>  (1278) 
[7, 82]

>  <energy_score>  (1278) 
-5.755167327828332

>  <distance_score>  (1278) 
8.552879889818843

>  <path>  (1278) 
/opt/xchem-fragalysis-2/maxwin/BulkDock/SCRATCH/511023/C44711-P7/C44711-P7.minimised.mol

>  <scratch_subdir>  (1278) 
/opt/xchem-fragalysis-2/maxwin/BulkDock/SCRATCH/511023/C44711-P7

>  <fragmenstein_runtime>  (1278) 
11.342483520507812

>  <fragmenstein_outcome>  (1278) 
too moved

>  <fragmenstein_mode>  (1278) 
expansion

>  <fragmenstein_error>  (1278) 


$$$$
C44711-P82
     RDKit          3D

 41 42  0  0  0  0  0  0  0  0999 V2000
  -13.5758   -5.4728   40.5241 C   0  0  0  0  0  0  0  0  0  0  0  0
  -13.5287   -6.8726   40.2694 O   0  0  0  0  0  0  0  0  0  0  0  0
  -14.7308   -7.3266   39.6437 C   0  0  0  0  0  0  0  0  0  0  0  0
  -14.6022   -8.8076   39.2266 C   0  0  0  0  0  0  0  0  0  0  0  0
  -15.5491   -9.3122   38.2060 N   0  0  0  0  0  0  0  0  0  0  0  0
  -15.3419  -10.6710   37.7912 N   0  0  0  0  0  0  0  0  0  0  0  0
  -16.2323  -11.2050   36.9947 C   0  0  0  0  0  0  0  0  0  0  0  0
  -16.2565  -12.7254   36.5520 C   0  0  0  0  0  0  0  0  0  0  0  0
  -17.3599  -13.1846   36.4692 O   0  0  0  0  0  0  0  0  0  0  0  0
  -14.9835  -13.2914   36.2288 N   0  0  0  0  0  0  0  0  0  0  0  0
  -14.6244  -14.5847   35.5981 C   0  0  0  0  0  0  0  0  0  0  0  0
  -15.2623  -15.9112   36.1088 C   0  0  0  0  0  0  0  0  0  0  0  0
  -15.2645  -16.0315   37.6333 C   0  0  0  0  0  0  0  0  0  0  0  0
  -14.6561  -17.1171   35.5112 N   0  0  0  0  0  0  0  0  0  0  0  0
  -15.3124  -18.0967   34.8072 C   0  0  0  0  0  0  0  0  0  0  0  0
  -14.3953  -19.0950   34.5769 C   0  0  0  0  0  0  0  0  0  0  0  0
  -13.2050  -18.6250   35.1581 C   0  0  0  0  0  0  0  0  0  0  0  0
  -13.3672  -17.4436   35.7641 N   0  0  0  0  0  0  0  0  0  0  0  0
  -17.3764  -10.4309   36.4424 C   0  0  0  0  0  0  0  0  0  0  0  0
  -17.5898   -9.1955   36.8855 C   0  0  0  0  0  0  0  0  0  0  0  0
  -16.7022   -8.5924   37.8862 C   0  0  0  0  0  0  0  0  0  0  0  0
  -17.0326   -7.4937   38.3222 O   0  0  0  0  0  0  0  0  0  0  0  0
  -12.6463   -5.1840   41.0220 H   0  0  0  0  0  0  0  0  0  0  0  0
  -13.6567   -4.9131   39.5874 H   0  0  0  0  0  0  0  0  0  0  0  0
  -14.4156   -5.2315   41.1827 H   0  0  0  0  0  0  0  0  0  0  0  0
  -15.5584   -7.2152   40.3544 H   0  0  0  0  0  0  0  0  0  0  0  0
  -14.9267   -6.6869   38.7808 H   0  0  0  0  0  0  0  0  0  0  0  0
  -13.5898   -9.0184   38.8648 H   0  0  0  0  0  0  0  0  0  0  0  0
  -14.7361   -9.4319   40.1189 H   0  0  0  0  0  0  0  0  0  0  0  0
  -14.2447  -12.6348   36.5097 H   0  0  0  0  0  0  0  0  0  0  0  0
  -14.8816  -14.4708   34.5387 H   0  0  0  0  0  0  0  0  0  0  0  0
  -13.5377  -14.6603   35.6369 H   0  0  0  0  0  0  0  0  0  0  0  0
  -16.3110  -15.9130   35.7829 H   0  0  0  0  0  0  0  0  0  0  0  0
  -14.2506  -16.0976   38.0345 H   0  0  0  0  0  0  0  0  0  0  0  0
  -15.7936  -16.9391   37.9463 H   0  0  0  0  0  0  0  0  0  0  0  0
  -15.7657  -15.1810   38.1043 H   0  0  0  0  0  0  0  0  0  0  0  0
  -16.3597  -18.0065   34.5569 H   0  0  0  0  0  0  0  0  0  0  0  0
  -14.5598  -20.0301   34.0616 H   0  0  0  0  0  0  0  0  0  0  0  0
  -12.2319  -19.0985   35.1813 H   0  0  0  0  0  0  0  0  0  0  0  0
  -18.0376  -10.9170   35.7360 H   0  0  0  0  0  0  0  0  0  0  0  0
  -18.4346   -8.6021   36.5600 H   0  0  0  0  0  0  0  0  0  0  0  0
  1  2  1  0
  2  3  1  0
  3  4  1  0
  4  5  1  0
  5  6  1  0
  6  7  2  0
  7  8  1  0
  8  9  2  0
  8 10  1  0
 10 11  1  0
 11 12  1  0
 12 13  1  0
 12 14  1  0
 14 15  1  0
 15 16  2  0
 16 17  1  0
 17 18  2  0
  7 19  1  0
 19 20  2  0
 20 21  1  0
 21 22  2  0
 21  5  1  0
 18 14  1  0
  1 23  1  0
  1 24  1  0
  1 25  1  0
  3 26  1  0
  3 27  1  0
  4 28  1  0
  4 29  1  0
 10 30  1  0
 11 31  1  0
 11 32  1  0
 12 33  1  0
 13 34  1  0
 13 35  1  0
 13 36  1  0
 15 37  1  0
 16 38  1  0
 17 39  1  0
 19 40  1  0
 20 41  1  0
M  END
>  <Energy>  (1279) 
106.81725231853117

>  <compound_id>  (1279) 
44711

>  <target_id>  (1279) 
1

>  <reference_id>  (1279) 
82

>  <inspiration_ids>  (1279) 
[7, 82]

>  <energy_score>  (1279) 
-29.701365670928425

>  <distance_score>  (1279) 
8.677066750313985

>  <path>  (1279) 
/opt/xchem-fragalysis-2/maxwin/BulkDock/SCRATCH/511023/C44711-P82/C44711-P82.minimised.mol

>  <scratch_subdir>  (1279) 
/opt/xchem-fragalysis-2/maxwin/BulkDock/SCRATCH/511023/C44711-P82

>  <fragmenstein_runtime>  (1279) 
10.854087591171265

>  <fragmenstein_outcome>  (1279) 
too moved

>  <fragmenstein_mode>  (1279) 
expansion

>  <fragmenstein_error>  (1279) 


$$$$
C33417-P7
     RDKit          3D

 38 39  0  0  0  0  0  0  0  0999 V2000
  -13.0213   -3.0884   37.1564 C   0  0  0  0  0  0  0  0  0  0  0  0
  -13.0257   -4.4362   36.7119 O   0  0  0  0  0  0  0  0  0  0  0  0
  -11.8244   -4.8018   36.0012 C   0  0  0  0  0  0  0  0  0  0  0  0
  -11.6398   -6.5950   35.5674 C   0  0  0  0  0  0  0  0  0  0  0  0
  -13.1060   -7.9253   36.1517 N   0  0  0  0  0  0  0  0  0  0  0  0
  -13.5556   -8.1323   37.6490 N   0  0  0  0  0  0  0  0  0  0  0  0
  -14.6087   -8.8680   37.8519 C   0  0  0  0  0  0  0  0  0  0  0  0
  -14.8796   -9.5439   39.2085 C   0  0  0  0  0  0  0  0  0  0  0  0
  -15.6584   -9.0259   39.9503 O   0  0  0  0  0  0  0  0  0  0  0  0
  -14.1743  -10.7951   39.3087 N   0  0  0  0  0  0  0  0  0  0  0  0
  -14.2604  -11.8684   40.2991 C   0  0  0  0  0  0  0  0  0  0  0  0
  -14.6807  -13.2254   39.6309 C   0  0  0  0  0  0  0  0  0  0  0  0
  -15.5651  -13.1988   38.8166 O   0  0  0  0  0  0  0  0  0  0  0  0
  -13.8281  -14.3129   40.0652 N   0  0  0  0  0  0  0  0  0  0  0  0
  -13.7170  -15.5996   39.6146 C   0  0  0  0  0  0  0  0  0  0  0  0
  -14.4435  -16.2263   38.7152 N   0  0  0  0  0  0  0  0  0  0  0  0
  -13.8134  -17.4048   38.3374 C   0  0  0  0  0  0  0  0  0  0  0  0
  -12.6103  -17.6511   38.9609 C   0  0  0  0  0  0  0  0  0  0  0  0
  -12.3018  -16.4219   40.1169 S   0  0  0  0  0  0  0  0  0  0  0  0
  -15.5839   -9.1978   36.8118 C   0  0  0  0  0  0  0  0  0  0  0  0
  -15.0448   -9.3436   35.6059 C   0  0  0  0  0  0  0  0  0  0  0  0
  -13.5778   -9.1734   35.4825 C   0  0  0  0  0  0  0  0  0  0  0  0
  -12.9360  -10.0458   34.9101 O   0  0  0  0  0  0  0  0  0  0  0  0
  -12.8784   -2.4063   36.3133 H   0  0  0  0  0  0  0  0  0  0  0  0
  -13.9857   -2.8747   37.6242 H   0  0  0  0  0  0  0  0  0  0  0  0
  -12.2303   -2.9371   37.8968 H   0  0  0  0  0  0  0  0  0  0  0  0
  -11.6184   -4.1523   35.1489 H   0  0  0  0  0  0  0  0  0  0  0  0
  -10.9822   -4.5569   36.6705 H   0  0  0  0  0  0  0  0  0  0  0  0
  -10.7086   -6.3482   36.0279 H   0  0  0  0  0  0  0  0  0  0  0  0
  -11.1838   -6.8133   34.5993 H   0  0  0  0  0  0  0  0  0  0  0  0
  -13.5267  -10.8754   38.5268 H   0  0  0  0  0  0  0  0  0  0  0  0
  -15.0104  -11.6044   41.0501 H   0  0  0  0  0  0  0  0  0  0  0  0
  -13.2785  -11.9398   40.7730 H   0  0  0  0  0  0  0  0  0  0  0  0
  -13.1366  -13.9535   40.7083 H   0  0  0  0  0  0  0  0  0  0  0  0
  -14.2762  -18.0346   37.5870 H   0  0  0  0  0  0  0  0  0  0  0  0
  -11.9237  -18.4722   38.8229 H   0  0  0  0  0  0  0  0  0  0  0  0
  -16.6167   -9.3884   37.0612 H   0  0  0  0  0  0  0  0  0  0  0  0
  -15.5843   -9.6880   34.7368 H   0  0  0  0  0  0  0  0  0  0  0  0
  1  2  1  0
  2  3  1  0
  3  4  1  0
  4  5  1  0
  5  6  1  0
  6  7  2  0
  7  8  1  0
  8  9  2  0
  8 10  1  0
 10 11  1  0
 11 12  1  0
 12 13  2  0
 12 14  1  0
 14 15  1  0
 15 16  2  0
 16 17  1  0
 17 18  2  0
 18 19  1  0
  7 20  1  0
 20 21  2  0
 21 22  1  0
 22 23  2  0
 22  5  1  0
 19 15  1  0
  1 24  1  0
  1 25  1  0
  1 26  1  0
  3 27  1  0
  3 28  1  0
  4 29  1  0
  4 30  1  0
 10 31  1  0
 11 32  1  0
 11 33  1  0
 14 34  1  0
 17 35  1  0
 18 36  1  0
 20 37  1  0
 21 38  1  0
M  END
>  <Energy>  (1280) 
298.51121973108616

>  <compound_id>  (1280) 
33417

>  <target_id>  (1280) 
1

>  <reference_id>  (1280) 
7

>  <inspiration_ids>  (1280) 
[7, 82]

>  <energy_score>  (1280) 
167.21881423255263

>  <distance_score>  (1280) 
10.82365011016192

>  <path>  (1280) 
/opt/xchem-fragalysis-2/maxwin/BulkDock/SCRATCH/511023/C33417-P7/C33417-P7.minimised.mol

>  <scratch_subdir>  (1280) 
/opt/xchem-fragalysis-2/maxwin/BulkDock/SCRATCH/511023/C33417-P7

>  <fragmenstein_runtime>  (1280) 
15.698158264160156

>  <fragmenstein_outcome>  (1280) 
too moved

>  <fragmenstein_mode>  (1280) 
expansion

>  <fragmenstein_error>  (1280) 


$$$$
C33417-P82
     RDKit          3D

 38 39  0  0  0  0  0  0  0  0999 V2000
  -11.9428   -3.9359   36.0779 C   0  0  0  0  0  0  0  0  0  0  0  0
  -11.3249   -5.1175   35.5742 O   0  0  0  0  0  0  0  0  0  0  0  0
  -12.1449   -6.1480   35.1365 C   0  0  0  0  0  0  0  0  0  0  0  0
  -11.6990   -8.0844   35.0759 C   0  0  0  0  0  0  0  0  0  0  0  0
  -10.3718   -9.5469   34.5367 N   0  0  0  0  0  0  0  0  0  0  0  0
   -8.9192  -10.9813   34.8058 N   0  0  0  0  0  0  0  0  0  0  0  0
   -8.7322  -12.1995   33.5336 C   0  0  0  0  0  0  0  0  0  0  0  0
   -9.0695  -14.1298   32.6843 C   0  0  0  0  0  0  0  0  0  0  0  0
  -10.0553  -14.7572   33.0698 O   0  0  0  0  0  0  0  0  0  0  0  0
   -7.9270  -14.6282   31.6939 N   0  0  0  0  0  0  0  0  0  0  0  0
   -7.7935  -15.8407   30.9419 C   0  0  0  0  0  0  0  0  0  0  0  0
   -6.8670  -16.8556   31.5930 C   0  0  0  0  0  0  0  0  0  0  0  0
   -6.0418  -17.4072   30.9223 O   0  0  0  0  0  0  0  0  0  0  0  0
   -7.2359  -17.0394   32.9605 N   0  0  0  0  0  0  0  0  0  0  0  0
   -6.8285  -17.9425   33.8694 C   0  0  0  0  0  0  0  0  0  0  0  0
   -6.1286  -19.0243   33.6544 N   0  0  0  0  0  0  0  0  0  0  0  0
   -5.9250  -19.6606   34.8581 C   0  0  0  0  0  0  0  0  0  0  0  0
   -6.4754  -19.0436   35.9612 C   0  0  0  0  0  0  0  0  0  0  0  0
   -7.3012  -17.6202   35.4687 S   0  0  0  0  0  0  0  0  0  0  0  0
   -8.6204  -11.3602   32.4523 C   0  0  0  0  0  0  0  0  0  0  0  0
   -9.4113  -10.4262   32.1050 C   0  0  0  0  0  0  0  0  0  0  0  0
  -10.1079   -9.0774   33.2181 C   0  0  0  0  0  0  0  0  0  0  0  0
   -9.8680   -7.8419   33.1018 O   0  0  0  0  0  0  0  0  0  0  0  0
  -11.8278   -3.1869   35.3021 H   0  0  0  0  0  0  0  0  0  0  0  0
  -12.9655   -4.1013   36.4157 H   0  0  0  0  0  0  0  0  0  0  0  0
  -11.3701   -3.5437   36.9246 H   0  0  0  0  0  0  0  0  0  0  0  0
  -13.1983   -6.0882   35.4608 H   0  0  0  0  0  0  0  0  0  0  0  0
  -12.4570   -5.6315   34.2447 H   0  0  0  0  0  0  0  0  0  0  0  0
  -11.3260   -7.2903   34.3335 H   0  0  0  0  0  0  0  0  0  0  0  0
  -12.4797   -8.3126   35.7525 H   0  0  0  0  0  0  0  0  0  0  0  0
   -7.2107  -13.9169   31.6350 H   0  0  0  0  0  0  0  0  0  0  0  0
   -8.7894  -16.2593   30.8156 H   0  0  0  0  0  0  0  0  0  0  0  0
   -7.3932  -15.5698   29.9602 H   0  0  0  0  0  0  0  0  0  0  0  0
   -7.9210  -16.3353   33.2160 H   0  0  0  0  0  0  0  0  0  0  0  0
   -5.3395  -20.5658   34.8857 H   0  0  0  0  0  0  0  0  0  0  0  0
   -6.4345  -19.3553   36.9944 H   0  0  0  0  0  0  0  0  0  0  0  0
   -9.4998  -11.9189   32.2526 H   0  0  0  0  0  0  0  0  0  0  0  0
   -9.5563  -10.4182   30.9980 H   0  0  0  0  0  0  0  0  0  0  0  0
  1  2  1  0
  2  3  1  0
  3  4  1  0
  4  5  1  0
  5  6  1  0
  6  7  2  0
  7  8  1  0
  8  9  2  0
  8 10  1  0
 10 11  1  0
 11 12  1  0
 12 13  2  0
 12 14  1  0
 14 15  1  0
 15 16  2  0
 16 17  1  0
 17 18  2  0
 18 19  1  0
  7 20  1  0
 20 21  2  0
 21 22  1  0
 22 23  2  0
 22  5  1  0
 19 15  1  0
  1 24  1  0
  1 25  1  0
  1 26  1  0
  3 27  1  0
  3 28  1  0
  4 29  1  0
  4 30  1  0
 10 31  1  0
 11 32  1  0
 11 33  1  0
 14 34  1  0
 17 35  1  0
 18 36  1  0
 20 37  1  0
 21 38  1  0
M  END
>  <Energy>  (1281) 
985.54032722032275

>  <compound_id>  (1281) 
33417

>  <target_id>  (1281) 
1

>  <reference_id>  (1281) 
82

>  <inspiration_ids>  (1281) 
[7, 82]

>  <energy_score>  (1281) 
854.2479217217785

>  <distance_score>  (1281) 
9.06794905552241

>  <path>  (1281) 
/opt/xchem-fragalysis-2/maxwin/BulkDock/SCRATCH/511023/C33417-P82/C33417-P82.minimised.mol

>  <scratch_subdir>  (1281) 
/opt/xchem-fragalysis-2/maxwin/BulkDock/SCRATCH/511023/C33417-P82

>  <fragmenstein_runtime>  (1281) 
13.368679523468018

>  <fragmenstein_outcome>  (1281) 
too moved

>  <fragmenstein_mode>  (1281) 
expansion

>  <fragmenstein_error>  (1281) 


$$$$
C47145-P7
     RDKit          3D

 48 49  0  0  0  0  0  0  0  0999 V2000
  -14.7224   -8.7523   37.6633 C   0  0  0  0  0  0  0  0  0  0  0  0
  -14.3790   -9.2593   36.3764 O   0  0  0  0  0  0  0  0  0  0  0  0
  -14.1457  -10.6761   36.4031 C   0  0  0  0  0  0  0  0  0  0  0  0
  -14.0242  -11.2598   34.9686 C   0  0  0  0  0  0  0  0  0  0  0  0
  -14.4568  -12.6855   34.8257 N   0  0  0  0  0  0  0  0  0  0  0  0
  -13.6196  -13.6811   34.1417 N   0  0  0  0  0  0  0  0  0  0  0  0
  -14.1237  -14.8682   33.8642 C   0  0  0  0  0  0  0  0  0  0  0  0
  -13.4295  -16.0634   32.8682 C   0  0  0  0  0  0  0  0  0  0  0  0
  -13.5744  -17.1927   33.2982 O   0  0  0  0  0  0  0  0  0  0  0  0
  -12.8056  -15.5572   31.5100 N   0  0  0  0  0  0  0  0  0  0  0  0
  -12.2024  -16.4533   30.0798 C   0  0  0  0  0  0  0  0  0  0  0  0
  -12.6190  -15.4111   28.9789 C   0  0  0  0  0  0  0  0  0  0  0  0
  -11.9398  -18.1850   29.1390 C   0  0  0  0  0  0  0  0  0  0  0  0
  -12.1765  -20.1407   29.3387 N   0  0  0  0  0  0  0  0  0  0  0  0
  -11.7836  -21.0619   30.5889 C   0  0  0  0  0  0  0  0  0  0  0  0
  -11.5690  -21.3821   28.2777 C   0  0  0  0  0  0  0  0  0  0  0  0
  -11.6258  -22.9279   28.3602 C   0  0  0  0  0  0  0  0  0  0  0  0
  -11.2953  -23.8546   29.3892 C   0  0  0  0  0  0  0  0  0  0  0  0
  -11.2887  -25.0882   28.7984 C   0  0  0  0  0  0  0  0  0  0  0  0
  -11.5676  -24.9453   27.4868 O   0  0  0  0  0  0  0  0  0  0  0  0
  -11.7398  -23.6104   27.1993 N   0  0  0  0  0  0  0  0  0  0  0  0
  -15.4590  -15.2514   34.3930 C   0  0  0  0  0  0  0  0  0  0  0  0
  -16.2425  -14.3094   34.9212 C   0  0  0  0  0  0  0  0  0  0  0  0
  -15.8112  -12.9121   35.0489 C   0  0  0  0  0  0  0  0  0  0  0  0
  -16.6374  -12.0757   35.4029 O   0  0  0  0  0  0  0  0  0  0  0  0
  -14.8989   -7.6773   37.5774 H   0  0  0  0  0  0  0  0  0  0  0  0
  -15.6407   -9.2240   38.0261 H   0  0  0  0  0  0  0  0  0  0  0  0
  -13.9055   -8.9257   38.3699 H   0  0  0  0  0  0  0  0  0  0  0  0
  -14.9574  -11.1595   36.9556 H   0  0  0  0  0  0  0  0  0  0  0  0
  -13.2168  -10.8707   36.9512 H   0  0  0  0  0  0  0  0  0  0  0  0
  -12.9982  -11.1388   34.6432 H   0  0  0  0  0  0  0  0  0  0  0  0
  -14.6434  -10.6697   34.2812 H   0  0  0  0  0  0  0  0  0  0  0  0
  -12.9206  -14.5683   31.4416 H   0  0  0  0  0  0  0  0  0  0  0  0
  -11.1682  -16.1191   30.1741 H   0  0  0  0  0  0  0  0  0  0  0  0
  -12.8429  -14.4243   29.3684 H   0  0  0  0  0  0  0  0  0  0  0  0
  -11.7972  -15.2443   28.2736 H   0  0  0  0  0  0  0  0  0  0  0  0
  -13.5560  -15.6628   28.4759 H   0  0  0  0  0  0  0  0  0  0  0  0
  -12.5377  -17.9437   28.3719 H   0  0  0  0  0  0  0  0  0  0  0  0
  -10.9233  -17.9409   28.8199 H   0  0  0  0  0  0  0  0  0  0  0  0
  -11.9482  -20.7881   31.6380 H   0  0  0  0  0  0  0  0  0  0  0  0
  -12.4091  -21.9303   30.5004 H   0  0  0  0  0  0  0  0  0  0  0  0
  -10.7365  -21.2772   30.5246 H   0  0  0  0  0  0  0  0  0  0  0  0
  -10.4828  -21.3076   28.3790 H   0  0  0  0  0  0  0  0  0  0  0  0
  -11.8997  -21.1919   27.2662 H   0  0  0  0  0  0  0  0  0  0  0  0
  -11.0394  -23.6403   30.4090 H   0  0  0  0  0  0  0  0  0  0  0  0
  -11.0942  -26.0944   29.1392 H   0  0  0  0  0  0  0  0  0  0  0  0
  -15.7775  -16.2796   34.2859 H   0  0  0  0  0  0  0  0  0  0  0  0
  -17.2440  -14.5295   35.2702 H   0  0  0  0  0  0  0  0  0  0  0  0
  1  2  1  0
  2  3  1  0
  3  4  1  0
  4  5  1  0
  5  6  1  0
  6  7  2  0
  7  8  1  0
  8  9  2  0
  8 10  1  0
 10 11  1  0
 11 12  1  0
 11 13  1  0
 13 14  1  0
 14 15  1  0
 14 16  1  0
 16 17  1  0
 17 18  1  0
 18 19  2  0
 19 20  1  0
 20 21  1  0
  7 22  1  0
 22 23  2  0
 23 24  1  0
 24 25  2  0
 24  5  1  0
 21 17  2  0
  1 26  1  0
  1 27  1  0
  1 28  1  0
  3 29  1  0
  3 30  1  0
  4 31  1  0
  4 32  1  0
 10 33  1  0
 11 34  1  0
 12 35  1  0
 12 36  1  0
 12 37  1  0
 13 38  1  0
 13 39  1  0
 15 40  1  0
 15 41  1  0
 15 42  1  0
 16 43  1  0
 16 44  1  0
 18 45  1  0
 19 46  1  0
 22 47  1  0
 23 48  1  0
M  END
>  <Energy>  (1282) 
463.16113888595731

>  <compound_id>  (1282) 
47145

>  <target_id>  (1282) 
1

>  <reference_id>  (1282) 
7

>  <inspiration_ids>  (1282) 
[7, 82]

>  <energy_score>  (1282) 
284.5856290144151

>  <distance_score>  (1282) 
9.267631853813679

>  <path>  (1282) 
/opt/xchem-fragalysis-2/maxwin/BulkDock/SCRATCH/511023/C47145-P7/C47145-P7.minimised.mol

>  <scratch_subdir>  (1282) 
/opt/xchem-fragalysis-2/maxwin/BulkDock/SCRATCH/511023/C47145-P7

>  <fragmenstein_runtime>  (1282) 
14.88165545463562

>  <fragmenstein_outcome>  (1282) 
too moved

>  <fragmenstein_mode>  (1282) 
expansion

>  <fragmenstein_error>  (1282) 


$$$$
C47145-P82
     RDKit          3D

 48 49  0  0  0  0  0  0  0  0999 V2000
  -11.9433   -2.9356   38.0412 C   0  0  0  0  0  0  0  0  0  0  0  0
  -10.9350   -3.2054   37.0695 O   0  0  0  0  0  0  0  0  0  0  0  0
  -11.4136   -4.0825   36.0343 C   0  0  0  0  0  0  0  0  0  0  0  0
  -10.2940   -5.5423   35.5997 C   0  0  0  0  0  0  0  0  0  0  0  0
   -9.7506   -6.7084   34.2691 N   0  0  0  0  0  0  0  0  0  0  0  0
   -9.8659   -8.7061   33.9471 N   0  0  0  0  0  0  0  0  0  0  0  0
   -9.7166   -9.7064   32.9290 C   0  0  0  0  0  0  0  0  0  0  0  0
   -8.6043  -11.5271   32.9302 C   0  0  0  0  0  0  0  0  0  0  0  0
   -7.4407  -11.4118   32.8679 O   0  0  0  0  0  0  0  0  0  0  0  0
   -9.2560  -13.2300   32.8506 N   0  0  0  0  0  0  0  0  0  0  0  0
   -8.4204  -14.8876   32.5343 C   0  0  0  0  0  0  0  0  0  0  0  0
   -7.7658  -15.0596   31.1116 C   0  0  0  0  0  0  0  0  0  0  0  0
   -7.4188  -15.7913   33.4897 C   0  0  0  0  0  0  0  0  0  0  0  0
   -7.8585  -16.7526   34.5421 N   0  0  0  0  0  0  0  0  0  0  0  0
   -7.0455  -17.9652   34.5542 C   0  0  0  0  0  0  0  0  0  0  0  0
   -9.2839  -17.0321   34.6995 C   0  0  0  0  0  0  0  0  0  0  0  0
   -9.6155  -17.2319   36.1640 C   0  0  0  0  0  0  0  0  0  0  0  0
   -8.7874  -17.0306   37.3035 C   0  0  0  0  0  0  0  0  0  0  0  0
   -9.6196  -17.2063   38.3766 C   0  0  0  0  0  0  0  0  0  0  0  0
  -10.8580  -17.5327   37.9334 O   0  0  0  0  0  0  0  0  0  0  0  0
  -10.8627  -17.5617   36.5487 N   0  0  0  0  0  0  0  0  0  0  0  0
   -9.4966   -7.8449   32.8297 C   0  0  0  0  0  0  0  0  0  0  0  0
  -10.5034   -7.0893   32.4452 C   0  0  0  0  0  0  0  0  0  0  0  0
  -10.9354   -6.6966   33.8222 C   0  0  0  0  0  0  0  0  0  0  0  0
  -11.7561   -6.7264   34.7450 O   0  0  0  0  0  0  0  0  0  0  0  0
  -11.5171   -2.2651   38.7923 H   0  0  0  0  0  0  0  0  0  0  0  0
  -12.7994   -2.4369   37.5809 H   0  0  0  0  0  0  0  0  0  0  0  0
  -12.2651   -3.8525   38.5423 H   0  0  0  0  0  0  0  0  0  0  0  0
  -11.5734   -3.4092   35.1774 H   0  0  0  0  0  0  0  0  0  0  0  0
  -12.4177   -4.4719   36.2694 H   0  0  0  0  0  0  0  0  0  0  0  0
   -9.2825   -5.1438   35.6151 H   0  0  0  0  0  0  0  0  0  0  0  0
  -11.1216   -5.2204   34.9727 H   0  0  0  0  0  0  0  0  0  0  0  0
  -10.1682  -13.1991   32.9931 H   0  0  0  0  0  0  0  0  0  0  0  0
   -9.3446  -15.4703   32.4573 H   0  0  0  0  0  0  0  0  0  0  0  0
   -7.3973  -16.0765   30.9377 H   0  0  0  0  0  0  0  0  0  0  0  0
   -8.4724  -14.8823   30.2986 H   0  0  0  0  0  0  0  0  0  0  0  0
   -6.8870  -14.4141   31.0155 H   0  0  0  0  0  0  0  0  0  0  0  0
   -6.8058  -16.3894   32.8043 H   0  0  0  0  0  0  0  0  0  0  0  0
   -6.6827  -15.1106   33.9430 H   0  0  0  0  0  0  0  0  0  0  0  0
   -7.1845  -18.5165   35.4871 H   0  0  0  0  0  0  0  0  0  0  0  0
   -7.2804  -18.6264   33.7248 H   0  0  0  0  0  0  0  0  0  0  0  0
   -5.9781  -17.7196   34.5116 H   0  0  0  0  0  0  0  0  0  0  0  0
   -9.5952  -17.8909   34.1078 H   0  0  0  0  0  0  0  0  0  0  0  0
   -9.9045  -16.1963   34.3742 H   0  0  0  0  0  0  0  0  0  0  0  0
   -7.7469  -16.7410   37.3195 H   0  0  0  0  0  0  0  0  0  0  0  0
   -9.5006  -17.1472   39.4479 H   0  0  0  0  0  0  0  0  0  0  0  0
   -8.5188   -7.3052   32.8793 H   0  0  0  0  0  0  0  0  0  0  0  0
  -11.2070   -7.2395   31.6834 H   0  0  0  0  0  0  0  0  0  0  0  0
  1  2  1  0
  2  3  1  0
  3  4  1  0
  4  5  1  0
  5  6  1  0
  6  7  2  0
  7  8  1  0
  8  9  2  0
  8 10  1  0
 10 11  1  0
 11 12  1  0
 11 13  1  0
 13 14  1  0
 14 15  1  0
 14 16  1  0
 16 17  1  0
 17 18  1  0
 18 19  2  0
 19 20  1  0
 20 21  1  0
  7 22  1  0
 22 23  2  0
 23 24  1  0
 24 25  2  0
 24  5  1  0
 21 17  2  0
  1 26  1  0
  1 27  1  0
  1 28  1  0
  3 29  1  0
  3 30  1  0
  4 31  1  0
  4 32  1  0
 10 33  1  0
 11 34  1  0
 12 35  1  0
 12 36  1  0
 12 37  1  0
 13 38  1  0
 13 39  1  0
 15 40  1  0
 15 41  1  0
 15 42  1  0
 16 43  1  0
 16 44  1  0
 18 45  1  0
 19 46  1  0
 22 47  1  0
 23 48  1  0
M  END
>  <Energy>  (1283) 
1181.0241974499202

>  <compound_id>  (1283) 
47145

>  <target_id>  (1283) 
1

>  <reference_id>  (1283) 
82

>  <inspiration_ids>  (1283) 
[7, 82]

>  <energy_score>  (1283) 
1002.4486875783887

>  <distance_score>  (1283) 
8.6705812227914

>  <path>  (1283) 
/opt/xchem-fragalysis-2/maxwin/BulkDock/SCRATCH/511023/C47145-P82/C47145-P82.minimised.mol

>  <scratch_subdir>  (1283) 
/opt/xchem-fragalysis-2/maxwin/BulkDock/SCRATCH/511023/C47145-P82

>  <fragmenstein_runtime>  (1283) 
14.379593849182129

>  <fragmenstein_outcome>  (1283) 
too moved

>  <fragmenstein_mode>  (1283) 
expansion

>  <fragmenstein_error>  (1283) 


$$$$
C47148-P7
     RDKit          3D

 37 38  0  0  0  0  0  0  0  0999 V2000
  -13.5432   -4.0432   40.1669 C   0  0  0  0  0  0  0  0  0  0  0  0
  -13.7458   -5.4180   39.8679 O   0  0  0  0  0  0  0  0  0  0  0  0
  -14.7724   -5.5872   38.8901 C   0  0  0  0  0  0  0  0  0  0  0  0
  -15.0620   -7.0849   38.6661 C   0  0  0  0  0  0  0  0  0  0  0  0
  -15.5606   -7.4403   37.3301 N   0  0  0  0  0  0  0  0  0  0  0  0
  -15.6491   -8.8426   37.0438 N   0  0  0  0  0  0  0  0  0  0  0  0
  -16.1934   -9.1594   35.9007 C   0  0  0  0  0  0  0  0  0  0  0  0
  -16.7080  -10.5894   35.5463 C   0  0  0  0  0  0  0  0  0  0  0  0
  -17.7957  -10.5543   35.0411 O   0  0  0  0  0  0  0  0  0  0  0  0
  -15.8702  -11.7014   35.8867 N   0  0  0  0  0  0  0  0  0  0  0  0
  -16.1160  -13.1571   35.8155 C   0  0  0  0  0  0  0  0  0  0  0  0
  -15.4393  -13.9660   34.6691 C   0  0  0  0  0  0  0  0  0  0  0  0
  -15.3920  -15.4623   34.8925 C   0  0  0  0  0  0  0  0  0  0  0  0
  -16.2207  -16.3977   35.4738 C   0  0  0  0  0  0  0  0  0  0  0  0
  -15.5255  -17.6194   35.3660 C   0  0  0  0  0  0  0  0  0  0  0  0
  -14.3647  -17.4710   34.7295 N   0  0  0  0  0  0  0  0  0  0  0  0
  -14.2734  -16.1154   34.4372 O   0  0  0  0  0  0  0  0  0  0  0  0
  -16.5399   -8.1541   34.8688 C   0  0  0  0  0  0  0  0  0  0  0  0
  -16.6672   -6.8907   35.2547 C   0  0  0  0  0  0  0  0  0  0  0  0
  -16.3171   -6.5004   36.6196 C   0  0  0  0  0  0  0  0  0  0  0  0
  -16.6547   -5.3829   36.9969 O   0  0  0  0  0  0  0  0  0  0  0  0
  -12.7413   -3.9674   40.9062 H   0  0  0  0  0  0  0  0  0  0  0  0
  -14.4511   -3.6042   40.5915 H   0  0  0  0  0  0  0  0  0  0  0  0
  -13.2422   -3.4948   39.2689 H   0  0  0  0  0  0  0  0  0  0  0  0
  -14.4343   -5.1038   37.9672 H   0  0  0  0  0  0  0  0  0  0  0  0
  -15.6836   -5.0874   39.2401 H   0  0  0  0  0  0  0  0  0  0  0  0
  -14.1639   -7.6839   38.8530 H   0  0  0  0  0  0  0  0  0  0  0  0
  -15.8149   -7.4133   39.3929 H   0  0  0  0  0  0  0  0  0  0  0  0
  -15.0471  -11.3572   36.3795 H   0  0  0  0  0  0  0  0  0  0  0  0
  -17.2019  -13.2773   35.7106 H   0  0  0  0  0  0  0  0  0  0  0  0
  -15.8700  -13.5608   36.7989 H   0  0  0  0  0  0  0  0  0  0  0  0
  -15.9888  -13.7616   33.7438 H   0  0  0  0  0  0  0  0  0  0  0  0
  -14.4212  -13.5898   34.5186 H   0  0  0  0  0  0  0  0  0  0  0  0
  -17.1833  -16.2224   35.9312 H   0  0  0  0  0  0  0  0  0  0  0  0
  -15.8146  -18.6027   35.7120 H   0  0  0  0  0  0  0  0  0  0  0  0
  -16.7631   -8.4770   33.8680 H   0  0  0  0  0  0  0  0  0  0  0  0
  -17.0065   -6.1145   34.5933 H   0  0  0  0  0  0  0  0  0  0  0  0
  1  2  1  0
  2  3  1  0
  3  4  1  0
  4  5  1  0
  5  6  1  0
  6  7  2  0
  7  8  1  0
  8  9  2  0
  8 10  1  0
 10 11  1  0
 11 12  1  0
 12 13  1  0
 13 14  2  0
 14 15  1  0
 15 16  2  0
 16 17  1  0
  7 18  1  0
 18 19  2  0
 19 20  1  0
 20 21  2  0
 20  5  1  0
 17 13  1  0
  1 22  1  0
  1 23  1  0
  1 24  1  0
  3 25  1  0
  3 26  1  0
  4 27  1  0
  4 28  1  0
 10 29  1  0
 11 30  1  0
 11 31  1  0
 12 32  1  0
 12 33  1  0
 14 34  1  0
 15 35  1  0
 18 36  1  0
 19 37  1  0
M  END
>  <Energy>  (1284) 
102.47330228094489

>  <compound_id>  (1284) 
47148

>  <target_id>  (1284) 
1

>  <reference_id>  (1284) 
7

>  <inspiration_ids>  (1284) 
[7, 82]

>  <energy_score>  (1284) 
-23.435027558335037

>  <distance_score>  (1284) 
8.137471896537058

>  <path>  (1284) 
/opt/xchem-fragalysis-2/maxwin/BulkDock/SCRATCH/511023/C47148-P7/C47148-P7.minimised.mol

>  <scratch_subdir>  (1284) 
/opt/xchem-fragalysis-2/maxwin/BulkDock/SCRATCH/511023/C47148-P7

>  <fragmenstein_runtime>  (1284) 
15.01010251045227

>  <fragmenstein_outcome>  (1284) 
too moved

>  <fragmenstein_mode>  (1284) 
expansion

>  <fragmenstein_error>  (1284) 


$$$$
C47148-P82
     RDKit          3D

 37 38  0  0  0  0  0  0  0  0999 V2000
  -14.6310   -4.0568   38.2834 C   0  0  0  0  0  0  0  0  0  0  0  0
  -14.9951   -5.3578   37.8191 O   0  0  0  0  0  0  0  0  0  0  0  0
  -15.8601   -6.0079   38.7533 C   0  0  0  0  0  0  0  0  0  0  0  0
  -16.2972   -7.4038   38.2699 C   0  0  0  0  0  0  0  0  0  0  0  0
  -15.3467   -8.5337   38.3139 N   0  0  0  0  0  0  0  0  0  0  0  0
  -15.7923   -9.7016   37.6016 N   0  0  0  0  0  0  0  0  0  0  0  0
  -15.3350  -10.8681   37.9955 C   0  0  0  0  0  0  0  0  0  0  0  0
  -15.9992  -12.2068   37.5139 C   0  0  0  0  0  0  0  0  0  0  0  0
  -17.1668  -12.2850   37.7693 O   0  0  0  0  0  0  0  0  0  0  0  0
  -15.0946  -13.1724   36.9290 N   0  0  0  0  0  0  0  0  0  0  0  0
  -15.2993  -14.5929   36.5524 C   0  0  0  0  0  0  0  0  0  0  0  0
  -14.5642  -15.1021   35.2849 C   0  0  0  0  0  0  0  0  0  0  0  0
  -14.2876  -16.5830   35.2211 C   0  0  0  0  0  0  0  0  0  0  0  0
  -13.1817  -17.3661   35.4800 C   0  0  0  0  0  0  0  0  0  0  0  0
  -13.5406  -18.6565   35.0510 C   0  0  0  0  0  0  0  0  0  0  0  0
  -14.7859  -18.6873   34.5733 N   0  0  0  0  0  0  0  0  0  0  0  0
  -15.2594  -17.3852   34.6909 O   0  0  0  0  0  0  0  0  0  0  0  0
  -14.3596  -10.9851   39.1287 C   0  0  0  0  0  0  0  0  0  0  0  0
  -13.5788   -9.8923   39.1910 C   0  0  0  0  0  0  0  0  0  0  0  0
  -14.4207   -8.6694   39.3552 C   0  0  0  0  0  0  0  0  0  0  0  0
  -14.2328   -7.9162   40.2987 O   0  0  0  0  0  0  0  0  0  0  0  0
  -15.5168   -3.4198   38.3641 H   0  0  0  0  0  0  0  0  0  0  0  0
  -13.9440   -3.6142   37.5583 H   0  0  0  0  0  0  0  0  0  0  0  0
  -14.1202   -4.1238   39.2488 H   0  0  0  0  0  0  0  0  0  0  0  0
  -16.7676   -5.3963   38.8383 H   0  0  0  0  0  0  0  0  0  0  0  0
  -15.3983   -6.0310   39.7422 H   0  0  0  0  0  0  0  0  0  0  0  0
  -16.6404   -7.3237   37.2319 H   0  0  0  0  0  0  0  0  0  0  0  0
  -17.1487   -7.7192   38.8853 H   0  0  0  0  0  0  0  0  0  0  0  0
  -14.1454  -12.7879   36.9361 H   0  0  0  0  0  0  0  0  0  0  0  0
  -14.9638  -15.1660   37.4248 H   0  0  0  0  0  0  0  0  0  0  0  0
  -16.3778  -14.7621   36.4592 H   0  0  0  0  0  0  0  0  0  0  0  0
  -13.6057  -14.5847   35.2086 H   0  0  0  0  0  0  0  0  0  0  0  0
  -15.1409  -14.8001   34.4036 H   0  0  0  0  0  0  0  0  0  0  0  0
  -12.2232  -17.0532   35.8587 H   0  0  0  0  0  0  0  0  0  0  0  0
  -12.9467  -19.5603   35.0428 H   0  0  0  0  0  0  0  0  0  0  0  0
  -14.9227  -11.2922   40.0117 H   0  0  0  0  0  0  0  0  0  0  0  0
  -12.9049   -9.7159   38.3544 H   0  0  0  0  0  0  0  0  0  0  0  0
  1  2  1  0
  2  3  1  0
  3  4  1  0
  4  5  1  0
  5  6  1  0
  6  7  2  0
  7  8  1  0
  8  9  2  0
  8 10  1  0
 10 11  1  0
 11 12  1  0
 12 13  1  0
 13 14  2  0
 14 15  1  0
 15 16  2  0
 16 17  1  0
  7 18  1  0
 18 19  2  0
 19 20  1  0
 20 21  2  0
 20  5  1  0
 17 13  1  0
  1 22  1  0
  1 23  1  0
  1 24  1  0
  3 25  1  0
  3 26  1  0
  4 27  1  0
  4 28  1  0
 10 29  1  0
 11 30  1  0
 11 31  1  0
 12 32  1  0
 12 33  1  0
 14 34  1  0
 15 35  1  0
 18 36  1  0
 19 37  1  0
M  END
>  <Energy>  (1285) 
149.96042468682694

>  <compound_id>  (1285) 
47148

>  <target_id>  (1285) 
1

>  <reference_id>  (1285) 
82

>  <inspiration_ids>  (1285) 
[7, 82]

>  <energy_score>  (1285) 
24.052094847550393

>  <distance_score>  (1285) 
8.27021856505259

>  <path>  (1285) 
/opt/xchem-fragalysis-2/maxwin/BulkDock/SCRATCH/511023/C47148-P82/C47148-P82.minimised.mol

>  <scratch_subdir>  (1285) 
/opt/xchem-fragalysis-2/maxwin/BulkDock/SCRATCH/511023/C47148-P82

>  <fragmenstein_runtime>  (1285) 
11.381006240844727

>  <fragmenstein_outcome>  (1285) 
too moved

>  <fragmenstein_mode>  (1285) 
expansion

>  <fragmenstein_error>  (1285) 


$$$$
C47149-P40
     RDKit          3D

 49 53  0  0  0  0  0  0  0  0999 V2000
   -4.5988  -16.8155   29.9381 O   0  0  0  0  0  0  0  0  0  0  0  0
   -5.4155  -16.7879   29.1594 C   0  0  0  0  0  0  0  0  0  0  0  0
   -6.0772  -15.1097   29.0378 N   0  0  0  0  0  0  0  0  0  0  0  0
   -5.5321  -13.4551   29.8184 C   0  0  0  0  0  0  0  0  0  0  0  0
   -3.9393  -12.2452   29.0905 C   0  0  0  0  0  0  0  0  0  0  0  0
   -2.6084  -12.1856   29.6759 C   0  0  0  0  0  0  0  0  0  0  0  0
   -1.1875  -11.1999   30.4576 C   0  0  0  0  0  0  0  0  0  0  0  0
   -1.1660   -9.9383   30.4914 C   0  0  0  0  0  0  0  0  0  0  0  0
   -0.9891   -8.8891   31.2821 N   0  0  0  0  0  0  0  0  0  0  0  0
   -0.9077   -7.8132   30.4605 C   0  0  0  0  0  0  0  0  0  0  0  0
   -0.6492   -8.4114   29.1932 C   0  0  0  0  0  0  0  0  0  0  0  0
   -1.1396  -10.1009   29.1173 C   0  0  0  0  0  0  0  0  0  0  0  0
   -2.5902  -11.3177   28.7490 C   0  0  0  0  0  0  0  0  0  0  0  0
    0.6827   -7.8128   28.7741 C   0  0  0  0  0  0  0  0  0  0  0  0
    1.0260   -6.3272   28.9950 C   0  0  0  0  0  0  0  0  0  0  0  0
    0.1177   -5.5854   29.9675 C   0  0  0  0  0  0  0  0  0  0  0  0
   -0.4864   -6.4920   31.0300 C   0  0  0  0  0  0  0  0  0  0  0  0
   -5.6341  -18.6794   27.9608 C   0  0  0  0  0  0  0  0  0  0  0  0
   -5.7230  -18.9197   26.7953 O   0  0  0  0  0  0  0  0  0  0  0  0
   -6.2247  -20.6967   27.4689 C   0  0  0  0  0  0  0  0  0  0  0  0
   -5.7979  -22.0729   26.8624 C   0  0  0  0  0  0  0  0  0  0  0  0
   -7.1832  -22.4433   26.6968 N   0  0  0  0  0  0  0  0  0  0  0  0
   -8.2293  -21.4881   27.6690 C   0  0  0  0  0  0  0  0  0  0  0  0
  -10.0321  -21.7667   28.0766 C   0  0  0  0  0  0  0  0  0  0  0  0
  -10.8070  -22.8587   27.8232 C   0  0  0  0  0  0  0  0  0  0  0  0
   -9.9620  -23.8224   27.5126 C   0  0  0  0  0  0  0  0  0  0  0  0
   -8.5688  -23.4583   27.8896 C   0  0  0  0  0  0  0  0  0  0  0  0
   -7.2552  -22.2294   28.1175 C   0  0  0  0  0  0  0  0  0  0  0  0
   -6.8451  -15.1408   28.4170 H   0  0  0  0  0  0  0  0  0  0  0  0
   -6.3275  -13.1807   29.1681 H   0  0  0  0  0  0  0  0  0  0  0  0
   -5.9486  -13.5508   30.8358 H   0  0  0  0  0  0  0  0  0  0  0  0
   -2.3193  -13.2903   29.4062 H   0  0  0  0  0  0  0  0  0  0  0  0
   -0.2516  -11.6662   30.7278 H   0  0  0  0  0  0  0  0  0  0  0  0
   -0.9840   -8.8889   32.2967 H   0  0  0  0  0  0  0  0  0  0  0  0
   -2.4429  -11.4715   27.6193 H   0  0  0  0  0  0  0  0  0  0  0  0
    1.1764   -8.2047   27.9036 H   0  0  0  0  0  0  0  0  0  0  0  0
    1.2230   -8.2452   29.6037 H   0  0  0  0  0  0  0  0  0  0  0  0
    2.0561   -6.2685   29.3717 H   0  0  0  0  0  0  0  0  0  0  0  0
    1.0805   -5.7821   28.0492 H   0  0  0  0  0  0  0  0  0  0  0  0
   -0.6714   -5.0940   29.3955 H   0  0  0  0  0  0  0  0  0  0  0  0
    0.6708   -4.7687   30.4470 H   0  0  0  0  0  0  0  0  0  0  0  0
    0.2713   -6.6664   31.8057 H   0  0  0  0  0  0  0  0  0  0  0  0
   -1.3261   -5.9976   31.5232 H   0  0  0  0  0  0  0  0  0  0  0  0
   -5.0064  -22.3674   26.1621 H   0  0  0  0  0  0  0  0  0  0  0  0
   -7.4965  -23.1535   26.0484 H   0  0  0  0  0  0  0  0  0  0  0  0
  -10.5242  -21.0487   28.7260 H   0  0  0  0  0  0  0  0  0  0  0  0
  -11.8633  -22.9432   27.9825 H   0  0  0  0  0  0  0  0  0  0  0  0
  -10.3035  -24.8499   27.4584 H   0  0  0  0  0  0  0  0  0  0  0  0
   -8.5800  -24.2765   28.5870 H   0  0  0  0  0  0  0  0  0  0  0  0
  1  2  2  0
  2  3  1  0
  3  4  1  0
  4  5  1  0
  5  6  2  0
  6  7  1  0
  7  8  2  0
  8  9  1  0
  9 10  1  0
 10 11  2  0
 11 12  1  0
 12 13  2  0
 11 14  1  0
 14 15  1  0
 15 16  1  0
 16 17  1  0
  2 18  1  0
 18 19  2  0
 18 20  1  0
 20 21  2  0
 21 22  1  0
 22 23  1  0
 23 24  2  0
 24 25  1  0
 25 26  2  0
 26 27  1  0
 27 28  2  0
 13  5  1  0
 28 20  1  0
 12  8  1  0
 28 23  1  0
 17 10  1  0
  3 29  1  0
  4 30  1  0
  4 31  1  0
  6 32  1  0
  7 33  1  0
  9 34  1  0
 13 35  1  0
 14 36  1  0
 14 37  1  0
 15 38  1  0
 15 39  1  0
 16 40  1  0
 16 41  1  0
 17 42  1  0
 17 43  1  0
 21 44  1  0
 22 45  1  0
 24 46  1  0
 25 47  1  0
 26 48  1  0
 27 49  1  0
M  END
>  <Energy>  (1286) 
2047.6936984642261

>  <compound_id>  (1286) 
47149

>  <target_id>  (1286) 
1

>  <reference_id>  (1286) 
40

>  <inspiration_ids>  (1286) 
[40, 39]

>  <energy_score>  (1286) 
1932.001739115392

>  <distance_score>  (1286) 
6.176323969661463

>  <path>  (1286) 
/opt/xchem-fragalysis-2/maxwin/BulkDock/SCRATCH/511023/C47149-P40/C47149-P40.minimised.mol

>  <scratch_subdir>  (1286) 
/opt/xchem-fragalysis-2/maxwin/BulkDock/SCRATCH/511023/C47149-P40

>  <fragmenstein_runtime>  (1286) 
23.946988105773926

>  <fragmenstein_outcome>  (1286) 
too moved

>  <fragmenstein_mode>  (1286) 
expansion

>  <fragmenstein_error>  (1286) 


$$$$
C47149-P39
     RDKit          3D

 49 53  0  0  0  0  0  0  0  0999 V2000
   -5.3714  -18.1234   27.7080 O   0  0  0  0  0  0  0  0  0  0  0  0
   -6.1849  -17.5261   28.4830 C   0  0  0  0  0  0  0  0  0  0  0  0
   -5.4366  -16.0534   29.4831 N   0  0  0  0  0  0  0  0  0  0  0  0
   -3.6228  -15.1431   29.4696 C   0  0  0  0  0  0  0  0  0  0  0  0
   -3.6472  -13.0823   29.6617 C   0  0  0  0  0  0  0  0  0  0  0  0
   -4.8522  -12.5941   30.2254 C   0  0  0  0  0  0  0  0  0  0  0  0
   -5.0213  -11.4299   31.2507 C   0  0  0  0  0  0  0  0  0  0  0  0
   -3.8456  -10.3056   31.7943 C   0  0  0  0  0  0  0  0  0  0  0  0
   -3.8869   -9.2183   32.6409 N   0  0  0  0  0  0  0  0  0  0  0  0
   -2.5998   -8.7772   32.8165 C   0  0  0  0  0  0  0  0  0  0  0  0
   -1.9474   -9.0808   31.6342 C   0  0  0  0  0  0  0  0  0  0  0  0
   -2.5877  -10.4044   31.1602 C   0  0  0  0  0  0  0  0  0  0  0  0
   -2.6829  -11.7424   30.0605 C   0  0  0  0  0  0  0  0  0  0  0  0
   -0.9337   -8.0229   31.1284 C   0  0  0  0  0  0  0  0  0  0  0  0
   -0.9718   -6.7264   31.9723 C   0  0  0  0  0  0  0  0  0  0  0  0
   -1.0557   -6.9324   33.4893 C   0  0  0  0  0  0  0  0  0  0  0  0
   -2.1153   -7.9359   33.9430 C   0  0  0  0  0  0  0  0  0  0  0  0
   -8.1493  -18.4076   28.2340 C   0  0  0  0  0  0  0  0  0  0  0  0
   -8.6225  -17.5385   27.4564 O   0  0  0  0  0  0  0  0  0  0  0  0
   -9.3640  -20.1098   28.1203 C   0  0  0  0  0  0  0  0  0  0  0  0
  -10.6847  -20.9999   27.5886 C   0  0  0  0  0  0  0  0  0  0  0  0
  -11.4701  -21.1059   28.7930 N   0  0  0  0  0  0  0  0  0  0  0  0
  -10.9994  -22.3166   28.9685 C   0  0  0  0  0  0  0  0  0  0  0  0
  -11.5895  -23.5149   29.3597 C   0  0  0  0  0  0  0  0  0  0  0  0
  -10.9046  -24.6341   28.9574 C   0  0  0  0  0  0  0  0  0  0  0  0
   -9.7373  -24.4856   28.2167 C   0  0  0  0  0  0  0  0  0  0  0  0
   -9.1385  -23.2068   27.9100 C   0  0  0  0  0  0  0  0  0  0  0  0
   -9.7541  -21.9804   28.3021 C   0  0  0  0  0  0  0  0  0  0  0  0
   -6.1113  -15.7344   30.0888 H   0  0  0  0  0  0  0  0  0  0  0  0
   -4.2755  -14.6850   30.1039 H   0  0  0  0  0  0  0  0  0  0  0  0
   -3.0034  -15.6165   30.2248 H   0  0  0  0  0  0  0  0  0  0  0  0
   -5.6637  -13.3254   30.1879 H   0  0  0  0  0  0  0  0  0  0  0  0
   -6.0100  -11.1956   31.6687 H   0  0  0  0  0  0  0  0  0  0  0  0
   -4.6882   -9.0230   33.2291 H   0  0  0  0  0  0  0  0  0  0  0  0
   -2.1842  -11.2913   29.2101 H   0  0  0  0  0  0  0  0  0  0  0  0
   -1.1432   -7.7320   30.0938 H   0  0  0  0  0  0  0  0  0  0  0  0
    0.1016   -8.3237   31.1060 H   0  0  0  0  0  0  0  0  0  0  0  0
   -0.0913   -6.1166   31.7350 H   0  0  0  0  0  0  0  0  0  0  0  0
   -1.8277   -6.1306   31.6617 H   0  0  0  0  0  0  0  0  0  0  0  0
   -0.0840   -7.2507   33.8710 H   0  0  0  0  0  0  0  0  0  0  0  0
   -1.2404   -5.9659   33.9737 H   0  0  0  0  0  0  0  0  0  0  0  0
   -1.7053   -8.5939   34.7074 H   0  0  0  0  0  0  0  0  0  0  0  0
   -2.8963   -7.4384   34.5126 H   0  0  0  0  0  0  0  0  0  0  0  0
  -11.2985  -21.0563   26.6810 H   0  0  0  0  0  0  0  0  0  0  0  0
  -12.4420  -20.8685   28.8367 H   0  0  0  0  0  0  0  0  0  0  0  0
  -12.5573  -23.5699   29.8441 H   0  0  0  0  0  0  0  0  0  0  0  0
  -11.2938  -25.6250   29.1742 H   0  0  0  0  0  0  0  0  0  0  0  0
   -9.2886  -25.4204   27.8968 H   0  0  0  0  0  0  0  0  0  0  0  0
   -8.2478  -23.0418   27.3271 H   0  0  0  0  0  0  0  0  0  0  0  0
  1  2  2  0
  2  3  1  0
  3  4  1  0
  4  5  1  0
  5  6  2  0
  6  7  1  0
  7  8  2  0
  8  9  1  0
  9 10  1  0
 10 11  2  0
 11 12  1  0
 12 13  2  0
 11 14  1  0
 14 15  1  0
 15 16  1  0
 16 17  1  0
  2 18  1  0
 18 19  2  0
 18 20  1  0
 20 21  2  0
 21 22  1  0
 22 23  1  0
 23 24  2  0
 24 25  1  0
 25 26  2  0
 26 27  1  0
 27 28  2  0
 13  5  1  0
 28 20  1  0
 12  8  1  0
 28 23  1  0
 17 10  1  0
  3 29  1  0
  4 30  1  0
  4 31  1  0
  6 32  1  0
  7 33  1  0
  9 34  1  0
 13 35  1  0
 14 36  1  0
 14 37  1  0
 15 38  1  0
 15 39  1  0
 16 40  1  0
 16 41  1  0
 17 42  1  0
 17 43  1  0
 21 44  1  0
 22 45  1  0
 24 46  1  0
 25 47  1  0
 26 48  1  0
 27 49  1  0
M  END
>  <Energy>  (1287) 
1207.5778895085236

>  <compound_id>  (1287) 
47149

>  <target_id>  (1287) 
1

>  <reference_id>  (1287) 
39

>  <inspiration_ids>  (1287) 
[40, 39]

>  <energy_score>  (1287) 
1091.885930159687

>  <distance_score>  (1287) 
6.712172913677446

>  <path>  (1287) 
/opt/xchem-fragalysis-2/maxwin/BulkDock/SCRATCH/511023/C47149-P39/C47149-P39.minimised.mol

>  <scratch_subdir>  (1287) 
/opt/xchem-fragalysis-2/maxwin/BulkDock/SCRATCH/511023/C47149-P39

>  <fragmenstein_runtime>  (1287) 
25.423070430755615

>  <fragmenstein_outcome>  (1287) 
too moved

>  <fragmenstein_mode>  (1287) 
expansion

>  <fragmenstein_error>  (1287) 


$$$$
C47150-P40
     RDKit          3D

 55 59  0  0  0  0  0  0  0  0999 V2000
   -4.2359  -11.9976   28.2828 S   0  0  0  0  0  0  0  0  0  0  0  0
   -5.3166  -12.2878   29.3808 C   0  0  0  0  0  0  0  0  0  0  0  0
   -6.4910  -13.8943   29.6793 N   0  0  0  0  0  0  0  0  0  0  0  0
   -6.8056  -15.6669   28.5863 C   0  0  0  0  0  0  0  0  0  0  0  0
   -8.0840  -17.4895   28.2972 C   0  0  0  0  0  0  0  0  0  0  0  0
   -8.6262  -19.4988   28.3375 N   0  0  0  0  0  0  0  0  0  0  0  0
   -7.7625  -20.9787   27.6352 C   0  0  0  0  0  0  0  0  0  0  0  0
   -8.0573  -22.3354   27.8318 C   0  0  0  0  0  0  0  0  0  0  0  0
   -9.4771  -22.4662   28.1277 C   0  0  0  0  0  0  0  0  0  0  0  0
  -10.4053  -23.4588   27.7749 C   0  0  0  0  0  0  0  0  0  0  0  0
  -11.7016  -23.0732   27.8979 C   0  0  0  0  0  0  0  0  0  0  0  0
  -11.9349  -22.0815   28.8211 C   0  0  0  0  0  0  0  0  0  0  0  0
  -10.9882  -21.1720   29.0882 C   0  0  0  0  0  0  0  0  0  0  0  0
   -9.9492  -20.8942   28.1008 C   0  0  0  0  0  0  0  0  0  0  0  0
   -5.6840  -11.0649   30.9298 N   0  0  0  0  0  0  0  0  0  0  0  0
   -4.7734   -9.2693   31.5679 C   0  0  0  0  0  0  0  0  0  0  0  0
   -2.9967   -8.6232   31.8304 C   0  0  0  0  0  0  0  0  0  0  0  0
   -2.5240   -8.6251   33.1678 C   0  0  0  0  0  0  0  0  0  0  0  0
   -1.4427   -7.8703   33.7233 C   0  0  0  0  0  0  0  0  0  0  0  0
   -0.6810   -7.0815   32.8919 C   0  0  0  0  0  0  0  0  0  0  0  0
    0.3427   -6.2189   33.1924 N   0  0  0  0  0  0  0  0  0  0  0  0
    0.7569   -5.5988   32.0552 C   0  0  0  0  0  0  0  0  0  0  0  0
    0.0442   -6.1274   30.9970 C   0  0  0  0  0  0  0  0  0  0  0  0
   -0.9525   -7.0065   31.5394 C   0  0  0  0  0  0  0  0  0  0  0  0
   -2.1364   -7.6966   31.0765 C   0  0  0  0  0  0  0  0  0  0  0  0
    0.3389   -5.6957   29.6093 C   0  0  0  0  0  0  0  0  0  0  0  0
    1.6688   -4.9249   29.5008 C   0  0  0  0  0  0  0  0  0  0  0  0
    1.8182   -3.8824   30.6187 C   0  0  0  0  0  0  0  0  0  0  0  0
    1.7931   -4.5312   32.0112 C   0  0  0  0  0  0  0  0  0  0  0  0
   -7.0091  -13.7768   30.5307 H   0  0  0  0  0  0  0  0  0  0  0  0
   -6.0804  -16.0882   29.3281 H   0  0  0  0  0  0  0  0  0  0  0  0
   -7.7127  -15.0655   28.2720 H   0  0  0  0  0  0  0  0  0  0  0  0
   -8.6420  -17.3175   27.3839 H   0  0  0  0  0  0  0  0  0  0  0  0
   -7.0940  -17.8684   28.4209 H   0  0  0  0  0  0  0  0  0  0  0  0
   -6.8034  -20.6690   27.3465 H   0  0  0  0  0  0  0  0  0  0  0  0
   -7.5118  -23.0416   27.2876 H   0  0  0  0  0  0  0  0  0  0  0  0
  -10.1138  -24.3919   27.3161 H   0  0  0  0  0  0  0  0  0  0  0  0
  -12.4598  -23.7523   27.5420 H   0  0  0  0  0  0  0  0  0  0  0  0
  -12.7355  -22.0308   29.5397 H   0  0  0  0  0  0  0  0  0  0  0  0
  -11.0181  -20.7299   30.0534 H   0  0  0  0  0  0  0  0  0  0  0  0
   -6.3654  -11.5293   31.5434 H   0  0  0  0  0  0  0  0  0  0  0  0
   -4.8261   -9.0355   32.6918 H   0  0  0  0  0  0  0  0  0  0  0  0
   -5.4075   -8.5945   31.0167 H   0  0  0  0  0  0  0  0  0  0  0  0
   -3.1297   -9.0837   33.9519 H   0  0  0  0  0  0  0  0  0  0  0  0
   -1.2664   -7.9056   34.7963 H   0  0  0  0  0  0  0  0  0  0  0  0
    0.6715   -6.0262   34.1291 H   0  0  0  0  0  0  0  0  0  0  0  0
   -2.3777   -7.3675   30.0701 H   0  0  0  0  0  0  0  0  0  0  0  0
    0.4088   -6.5857   28.9778 H   0  0  0  0  0  0  0  0  0  0  0  0
   -0.4682   -5.0445   29.2627 H   0  0  0  0  0  0  0  0  0  0  0  0
    2.5083   -5.6299   29.5550 H   0  0  0  0  0  0  0  0  0  0  0  0
    1.7268   -4.4367   28.5213 H   0  0  0  0  0  0  0  0  0  0  0  0
    2.7512   -3.3222   30.4913 H   0  0  0  0  0  0  0  0  0  0  0  0
    0.9976   -3.1574   30.5388 H   0  0  0  0  0  0  0  0  0  0  0  0
    2.7723   -4.9619   32.2367 H   0  0  0  0  0  0  0  0  0  0  0  0
    1.5927   -3.7656   32.7692 H   0  0  0  0  0  0  0  0  0  0  0  0
  1  2  2  0
  2  3  1  0
  3  4  1  0
  4  5  1  0
  5  6  1  0
  6  7  1  0
  7  8  2  0
  8  9  1  0
  9 10  2  0
 10 11  1  0
 11 12  2  0
 12 13  1  0
 13 14  2  0
  2 15  1  0
 15 16  1  0
 16 17  1  0
 17 18  2  0
 18 19  1  0
 19 20  2  0
 20 21  1  0
 21 22  1  0
 22 23  2  0
 23 24  1  0
 24 25  2  0
 23 26  1  0
 26 27  1  0
 27 28  1  0
 28 29  1  0
 14  6  1  0
 25 17  1  0
 14  9  1  0
 24 20  1  0
 29 22  1  0
  3 30  1  0
  4 31  1  0
  4 32  1  0
  5 33  1  0
  5 34  1  0
  7 35  1  0
  8 36  1  0
 10 37  1  0
 11 38  1  0
 12 39  1  0
 13 40  1  0
 15 41  1  0
 16 42  1  0
 16 43  1  0
 18 44  1  0
 19 45  1  0
 21 46  1  0
 25 47  1  0
 26 48  1  0
 26 49  1  0
 27 50  1  0
 27 51  1  0
 28 52  1  0
 28 53  1  0
 29 54  1  0
 29 55  1  0
M  END
>  <Energy>  (1288) 
1271.4205641894553

>  <compound_id>  (1288) 
47150

>  <target_id>  (1288) 
1

>  <reference_id>  (1288) 
40

>  <inspiration_ids>  (1288) 
[40, 39]

>  <energy_score>  (1288) 
1252.3538552158684

>  <distance_score>  (1288) 
4.534201646768949

>  <path>  (1288) 
/opt/xchem-fragalysis-2/maxwin/BulkDock/SCRATCH/511023/C47150-P40/C47150-P40.minimised.mol

>  <scratch_subdir>  (1288) 
/opt/xchem-fragalysis-2/maxwin/BulkDock/SCRATCH/511023/C47150-P40

>  <fragmenstein_runtime>  (1288) 
24.626749277114868

>  <fragmenstein_outcome>  (1288) 
too moved

>  <fragmenstein_mode>  (1288) 
expansion

>  <fragmenstein_error>  (1288) 


$$$$
C47150-P39
     RDKit          3D

 55 59  0  0  0  0  0  0  0  0999 V2000
   -6.9120  -13.9783   30.9163 S   0  0  0  0  0  0  0  0  0  0  0  0
   -5.8215  -14.5038   30.1060 C   0  0  0  0  0  0  0  0  0  0  0  0
   -5.8583  -16.0207   29.0174 N   0  0  0  0  0  0  0  0  0  0  0  0
   -7.4066  -17.2917   28.4394 C   0  0  0  0  0  0  0  0  0  0  0  0
   -8.4080  -19.1421   28.4123 C   0  0  0  0  0  0  0  0  0  0  0  0
   -9.9329  -20.4909   28.6347 N   0  0  0  0  0  0  0  0  0  0  0  0
   -9.9519  -21.7773   27.9738 C   0  0  0  0  0  0  0  0  0  0  0  0
  -11.2000  -22.3320   27.9190 C   0  0  0  0  0  0  0  0  0  0  0  0
  -11.6733  -22.0884   29.2032 C   0  0  0  0  0  0  0  0  0  0  0  0
  -12.5891  -22.8584   29.9628 C   0  0  0  0  0  0  0  0  0  0  0  0
  -12.6769  -22.7188   31.3354 C   0  0  0  0  0  0  0  0  0  0  0  0
  -11.8174  -21.8494   31.9623 C   0  0  0  0  0  0  0  0  0  0  0  0
  -10.8951  -21.0738   31.2300 C   0  0  0  0  0  0  0  0  0  0  0  0
  -10.8358  -21.0969   29.7957 C   0  0  0  0  0  0  0  0  0  0  0  0
   -4.1596  -13.6145   29.8104 N   0  0  0  0  0  0  0  0  0  0  0  0
   -3.5817  -11.9688   30.2598 C   0  0  0  0  0  0  0  0  0  0  0  0
   -2.2639  -10.6873   30.7511 C   0  0  0  0  0  0  0  0  0  0  0  0
   -2.6716   -9.7692   31.8439 C   0  0  0  0  0  0  0  0  0  0  0  0
   -2.0291   -8.5941   32.2967 C   0  0  0  0  0  0  0  0  0  0  0  0
   -1.1501   -8.0068   31.4054 C   0  0  0  0  0  0  0  0  0  0  0  0
   -0.5717   -6.7609   31.4430 N   0  0  0  0  0  0  0  0  0  0  0  0
   -0.2787   -6.4037   30.1656 C   0  0  0  0  0  0  0  0  0  0  0  0
   -0.4319   -7.5225   29.3706 C   0  0  0  0  0  0  0  0  0  0  0  0
   -0.7606   -8.6336   30.2088 C   0  0  0  0  0  0  0  0  0  0  0  0
   -1.1475  -10.0882   29.9580 C   0  0  0  0  0  0  0  0  0  0  0  0
   -0.1838   -7.4360   27.9281 C   0  0  0  0  0  0  0  0  0  0  0  0
   -0.5700   -6.0677   27.4155 C   0  0  0  0  0  0  0  0  0  0  0  0
   -0.0423   -4.8580   28.2277 C   0  0  0  0  0  0  0  0  0  0  0  0
    0.1330   -5.0484   29.7429 C   0  0  0  0  0  0  0  0  0  0  0  0
   -4.9402  -16.1765   28.6655 H   0  0  0  0  0  0  0  0  0  0  0  0
   -6.6441  -17.5320   27.8265 H   0  0  0  0  0  0  0  0  0  0  0  0
   -8.0477  -16.6388   27.8369 H   0  0  0  0  0  0  0  0  0  0  0  0
   -7.7911  -19.9559   27.9810 H   0  0  0  0  0  0  0  0  0  0  0  0
   -9.0493  -18.5467   27.7755 H   0  0  0  0  0  0  0  0  0  0  0  0
   -8.9890  -22.1982   27.6795 H   0  0  0  0  0  0  0  0  0  0  0  0
  -11.4902  -23.1782   27.3086 H   0  0  0  0  0  0  0  0  0  0  0  0
  -13.1731  -23.6380   29.4794 H   0  0  0  0  0  0  0  0  0  0  0  0
  -13.3732  -23.3273   31.9075 H   0  0  0  0  0  0  0  0  0  0  0  0
  -11.8581  -21.7635   33.0455 H   0  0  0  0  0  0  0  0  0  0  0  0
  -10.2476  -20.4604   31.8411 H   0  0  0  0  0  0  0  0  0  0  0  0
   -3.5429  -14.2421   29.2842 H   0  0  0  0  0  0  0  0  0  0  0  0
   -4.3839  -11.7809   30.9493 H   0  0  0  0  0  0  0  0  0  0  0  0
   -2.6877  -12.4331   29.9599 H   0  0  0  0  0  0  0  0  0  0  0  0
   -3.6687   -9.8669   32.2649 H   0  0  0  0  0  0  0  0  0  0  0  0
   -2.3826   -8.0651   33.1727 H   0  0  0  0  0  0  0  0  0  0  0  0
   -0.5611   -6.1486   32.2480 H   0  0  0  0  0  0  0  0  0  0  0  0
   -0.8780  -10.4124   28.9638 H   0  0  0  0  0  0  0  0  0  0  0  0
   -0.6049   -8.2152   27.3207 H   0  0  0  0  0  0  0  0  0  0  0  0
    0.8438   -7.6412   27.7436 H   0  0  0  0  0  0  0  0  0  0  0  0
   -1.6537   -6.0456   27.4150 H   0  0  0  0  0  0  0  0  0  0  0  0
   -0.2683   -5.9966   26.3715 H   0  0  0  0  0  0  0  0  0  0  0  0
   -0.7050   -4.0010   28.0698 H   0  0  0  0  0  0  0  0  0  0  0  0
    0.9146   -4.5251   27.8106 H   0  0  0  0  0  0  0  0  0  0  0  0
   -0.4486   -4.2882   30.2777 H   0  0  0  0  0  0  0  0  0  0  0  0
    1.1839   -4.8880   30.0125 H   0  0  0  0  0  0  0  0  0  0  0  0
  1  2  2  0
  2  3  1  0
  3  4  1  0
  4  5  1  0
  5  6  1  0
  6  7  1  0
  7  8  2  0
  8  9  1  0
  9 10  2  0
 10 11  1  0
 11 12  2  0
 12 13  1  0
 13 14  2  0
  2 15  1  0
 15 16  1  0
 16 17  1  0
 17 18  2  0
 18 19  1  0
 19 20  2  0
 20 21  1  0
 21 22  1  0
 22 23  2  0
 23 24  1  0
 24 25  2  0
 23 26  1  0
 26 27  1  0
 27 28  1  0
 28 29  1  0
 14  6  1  0
 25 17  1  0
 14  9  1  0
 24 20  1  0
 29 22  1  0
  3 30  1  0
  4 31  1  0
  4 32  1  0
  5 33  1  0
  5 34  1  0
  7 35  1  0
  8 36  1  0
 10 37  1  0
 11 38  1  0
 12 39  1  0
 13 40  1  0
 15 41  1  0
 16 42  1  0
 16 43  1  0
 18 44  1  0
 19 45  1  0
 21 46  1  0
 25 47  1  0
 26 48  1  0
 26 49  1  0
 27 50  1  0
 27 51  1  0
 28 52  1  0
 28 53  1  0
 29 54  1  0
 29 55  1  0
M  END
>  <Energy>  (1289) 
826.40052789774234

>  <compound_id>  (1289) 
47150

>  <target_id>  (1289) 
1

>  <reference_id>  (1289) 
39

>  <inspiration_ids>  (1289) 
[40, 39]

>  <energy_score>  (1289) 
807.3338189241299

>  <distance_score>  (1289) 
4.4345255060738635

>  <path>  (1289) 
/opt/xchem-fragalysis-2/maxwin/BulkDock/SCRATCH/511023/C47150-P39/C47150-P39.minimised.mol

>  <scratch_subdir>  (1289) 
/opt/xchem-fragalysis-2/maxwin/BulkDock/SCRATCH/511023/C47150-P39

>  <fragmenstein_runtime>  (1289) 
28.076860666275024

>  <fragmenstein_outcome>  (1289) 
too moved

>  <fragmenstein_mode>  (1289) 
expansion

>  <fragmenstein_error>  (1289) 


$$$$
C47162-P13
     RDKit          3D

 46 50  0  0  0  0  0  0  0  0999 V2000
   -5.3541   -8.5563   36.4445 O   0  0  0  0  0  0  0  0  0  0  0  0
   -4.5579   -9.2070   35.8344 C   0  0  0  0  0  0  0  0  0  0  0  0
   -3.0166   -9.1160   35.8718 C   0  0  0  0  0  0  0  0  0  0  0  0
   -2.4230   -8.2218   34.7968 N   0  0  0  0  0  0  0  0  0  0  0  0
   -1.5691   -7.0475   34.8976 C   0  0  0  0  0  0  0  0  0  0  0  0
   -1.1834   -6.4421   35.8592 O   0  0  0  0  0  0  0  0  0  0  0  0
   -1.1185   -6.4085   33.5707 C   0  0  0  0  0  0  0  0  0  0  0  0
   -0.8320   -7.1380   32.4023 C   0  0  0  0  0  0  0  0  0  0  0  0
   -0.4669   -6.4819   31.2041 C   0  0  0  0  0  0  0  0  0  0  0  0
   -0.4297   -5.1001   31.1770 C   0  0  0  0  0  0  0  0  0  0  0  0
   -0.6916   -4.3694   32.3019 C   0  0  0  0  0  0  0  0  0  0  0  0
   -0.9804   -4.9941   33.5091 C   0  0  0  0  0  0  0  0  0  0  0  0
   -0.6775   -3.0288   32.0564 O   0  0  0  0  0  0  0  0  0  0  0  0
   -0.4187   -3.0030   30.6333 C   0  0  0  0  0  0  0  0  0  0  0  0
   -0.1908   -4.3200   30.0887 O   0  0  0  0  0  0  0  0  0  0  0  0
   -4.7393  -10.2072   34.7950 N   0  0  0  0  0  0  0  0  0  0  0  0
   -6.1486  -10.7393   33.9703 C   0  0  0  0  0  0  0  0  0  0  0  0
   -7.6605  -11.3110   34.3145 C   0  0  0  0  0  0  0  0  0  0  0  0
   -8.4249  -12.0321   33.2153 C   0  0  0  0  0  0  0  0  0  0  0  0
   -8.2565  -13.3382   33.0008 C   0  0  0  0  0  0  0  0  0  0  0  0
   -9.4838  -14.7170   33.0325 C   0  0  0  0  0  0  0  0  0  0  0  0
  -10.7884  -14.9430   33.5269 C   0  0  0  0  0  0  0  0  0  0  0  0
  -10.8784  -16.0022   34.4560 N   0  0  0  0  0  0  0  0  0  0  0  0
  -11.8030  -16.6245   35.2858 C   0  0  0  0  0  0  0  0  0  0  0  0
  -11.3408  -17.8133   35.7146 C   0  0  0  0  0  0  0  0  0  0  0  0
   -9.7610  -18.2154   35.0150 S   0  0  0  0  0  0  0  0  0  0  0  0
   -9.7848  -16.7042   34.1497 C   0  0  0  0  0  0  0  0  0  0  0  0
   -9.3302  -16.1538   32.9957 N   0  0  0  0  0  0  0  0  0  0  0  0
   -6.9899  -12.9166   32.4171 C   0  0  0  0  0  0  0  0  0  0  0  0
   -6.0999  -11.5736   32.8354 C   0  0  0  0  0  0  0  0  0  0  0  0
   -2.6320  -10.1210   36.0411 H   0  0  0  0  0  0  0  0  0  0  0  0
   -2.4930   -8.6497   36.6230 H   0  0  0  0  0  0  0  0  0  0  0  0
   -2.4725   -8.5111   33.8332 H   0  0  0  0  0  0  0  0  0  0  0  0
   -0.8679   -8.2233   32.4171 H   0  0  0  0  0  0  0  0  0  0  0  0
   -0.2484   -7.0515   30.3085 H   0  0  0  0  0  0  0  0  0  0  0  0
   -1.1710   -4.3891   34.3931 H   0  0  0  0  0  0  0  0  0  0  0  0
    0.4682   -2.3869   30.4489 H   0  0  0  0  0  0  0  0  0  0  0  0
   -1.2798   -2.5531   30.1253 H   0  0  0  0  0  0  0  0  0  0  0  0
   -3.8404  -10.6134   34.5741 H   0  0  0  0  0  0  0  0  0  0  0  0
   -7.8354  -11.5353   35.3809 H   0  0  0  0  0  0  0  0  0  0  0  0
   -8.6567  -11.3935   32.3428 H   0  0  0  0  0  0  0  0  0  0  0  0
  -11.7176  -14.9409   32.9623 H   0  0  0  0  0  0  0  0  0  0  0  0
  -12.7436  -16.1569   35.5155 H   0  0  0  0  0  0  0  0  0  0  0  0
  -11.8531  -18.4928   36.3808 H   0  0  0  0  0  0  0  0  0  0  0  0
   -6.6286  -13.5283   31.5739 H   0  0  0  0  0  0  0  0  0  0  0  0
   -5.6138  -11.1039   32.0262 H   0  0  0  0  0  0  0  0  0  0  0  0
  1  2  2  0
  2  3  1  0
  3  4  1  0
  4  5  1  0
  5  6  2  0
  5  7  1  0
  7  8  2  0
  8  9  1  0
  9 10  2  0
 10 11  1  0
 11 12  2  0
 11 13  1  0
 13 14  1  0
 14 15  1  0
  2 16  1  0
 16 17  1  0
 17 18  2  0
 18 19  1  0
 19 20  2  0
 20 21  1  0
 21 22  2  0
 22 23  1  0
 23 24  1  0
 24 25  2  0
 25 26  1  0
 26 27  1  0
 27 28  2  0
 20 29  1  0
 29 30  2  0
 12  7  1  0
 30 17  1  0
 15 10  1  0
 28 21  1  0
 27 23  1  0
  3 31  1  0
  3 32  1  0
  4 33  1  0
  8 34  1  0
  9 35  1  0
 12 36  1  0
 14 37  1  0
 14 38  1  0
 16 39  1  0
 18 40  1  0
 19 41  1  0
 22 42  1  0
 24 43  1  0
 25 44  1  0
 29 45  1  0
 30 46  1  0
M  END
>  <Energy>  (1290) 
492.90678648096122

>  <compound_id>  (1290) 
47162

>  <target_id>  (1290) 
1

>  <reference_id>  (1290) 
13

>  <inspiration_ids>  (1290) 
[13, 52]

>  <energy_score>  (1290) 
362.14738198619557

>  <distance_score>  (1290) 
7.6103164747492045

>  <path>  (1290) 
/opt/xchem-fragalysis-2/maxwin/BulkDock/SCRATCH/511023/C47162-P13/C47162-P13.minimised.mol

>  <scratch_subdir>  (1290) 
/opt/xchem-fragalysis-2/maxwin/BulkDock/SCRATCH/511023/C47162-P13

>  <fragmenstein_runtime>  (1290) 
39.39234137535095

>  <fragmenstein_outcome>  (1290) 
too moved

>  <fragmenstein_mode>  (1290) 
expansion

>  <fragmenstein_error>  (1290) 


$$$$
C47162-P52
     RDKit          3D

 46 50  0  0  0  0  0  0  0  0999 V2000
   -2.7442  -13.2502   28.8749 O   0  0  0  0  0  0  0  0  0  0  0  0
   -3.4993  -12.2544   28.8196 C   0  0  0  0  0  0  0  0  0  0  0  0
   -2.6721  -10.7272   28.2768 C   0  0  0  0  0  0  0  0  0  0  0  0
   -2.1776   -9.2825   28.3850 N   0  0  0  0  0  0  0  0  0  0  0  0
   -1.3083   -8.4974   27.5075 C   0  0  0  0  0  0  0  0  0  0  0  0
   -0.6977   -8.8159   26.5257 O   0  0  0  0  0  0  0  0  0  0  0  0
   -1.2426   -6.9197   27.8387 C   0  0  0  0  0  0  0  0  0  0  0  0
   -1.5326   -6.2510   29.0699 C   0  0  0  0  0  0  0  0  0  0  0  0
   -1.5244   -4.8421   29.2119 C   0  0  0  0  0  0  0  0  0  0  0  0
   -1.3521   -4.0762   28.0873 C   0  0  0  0  0  0  0  0  0  0  0  0
   -1.2448   -4.6675   26.8565 C   0  0  0  0  0  0  0  0  0  0  0  0
   -1.1585   -6.0541   26.7035 C   0  0  0  0  0  0  0  0  0  0  0  0
   -1.2182   -3.7409   25.8567 O   0  0  0  0  0  0  0  0  0  0  0  0
   -1.1971   -2.5068   26.6121 C   0  0  0  0  0  0  0  0  0  0  0  0
   -1.3626   -2.7167   28.0299 O   0  0  0  0  0  0  0  0  0  0  0  0
   -5.1663  -12.0915   29.2909 N   0  0  0  0  0  0  0  0  0  0  0  0
   -6.2380  -13.2405   30.0976 C   0  0  0  0  0  0  0  0  0  0  0  0
   -7.4001  -12.6373   30.6095 C   0  0  0  0  0  0  0  0  0  0  0  0
   -8.2191  -13.2515   31.8204 C   0  0  0  0  0  0  0  0  0  0  0  0
   -7.8213  -14.3041   32.7950 C   0  0  0  0  0  0  0  0  0  0  0  0
   -8.5054  -14.7388   34.0253 C   0  0  0  0  0  0  0  0  0  0  0  0
   -9.8634  -14.8610   34.2416 C   0  0  0  0  0  0  0  0  0  0  0  0
  -10.0163  -15.1448   35.5588 N   0  0  0  0  0  0  0  0  0  0  0  0
  -11.0757  -15.3776   36.4191 C   0  0  0  0  0  0  0  0  0  0  0  0
  -10.7208  -15.1318   37.6940 C   0  0  0  0  0  0  0  0  0  0  0  0
   -9.0225  -14.5609   37.8401 S   0  0  0  0  0  0  0  0  0  0  0  0
   -8.8122  -14.8533   36.1303 C   0  0  0  0  0  0  0  0  0  0  0  0
   -7.8465  -14.7518   35.2573 N   0  0  0  0  0  0  0  0  0  0  0  0
   -6.6128  -14.8921   32.5391 C   0  0  0  0  0  0  0  0  0  0  0  0
   -5.8444  -14.4566   31.3644 C   0  0  0  0  0  0  0  0  0  0  0  0
   -3.5756  -10.3060   28.7076 H   0  0  0  0  0  0  0  0  0  0  0  0
   -1.7541  -11.0519   28.7787 H   0  0  0  0  0  0  0  0  0  0  0  0
   -2.4592   -8.7130   29.1647 H   0  0  0  0  0  0  0  0  0  0  0  0
   -1.8389   -6.7867   29.9595 H   0  0  0  0  0  0  0  0  0  0  0  0
   -1.6786   -4.3773   30.1805 H   0  0  0  0  0  0  0  0  0  0  0  0
   -1.0026   -6.4680   25.7100 H   0  0  0  0  0  0  0  0  0  0  0  0
   -2.0001   -1.8532   26.2585 H   0  0  0  0  0  0  0  0  0  0  0  0
   -0.2366   -2.0069   26.4389 H   0  0  0  0  0  0  0  0  0  0  0  0
   -5.4576  -11.1288   29.1911 H   0  0  0  0  0  0  0  0  0  0  0  0
   -7.2696  -11.5660   30.6198 H   0  0  0  0  0  0  0  0  0  0  0  0
   -9.2358  -12.8932   31.8569 H   0  0  0  0  0  0  0  0  0  0  0  0
  -10.6991  -14.5268   33.6647 H   0  0  0  0  0  0  0  0  0  0  0  0
  -12.0458  -15.6507   36.0374 H   0  0  0  0  0  0  0  0  0  0  0  0
  -11.3626  -15.2021   38.5613 H   0  0  0  0  0  0  0  0  0  0  0  0
   -6.3212  -15.6976   33.1704 H   0  0  0  0  0  0  0  0  0  0  0  0
   -4.8378  -14.7401   31.6697 H   0  0  0  0  0  0  0  0  0  0  0  0
  1  2  2  0
  2  3  1  0
  3  4  1  0
  4  5  1  0
  5  6  2  0
  5  7  1  0
  7  8  2  0
  8  9  1  0
  9 10  2  0
 10 11  1  0
 11 12  2  0
 11 13  1  0
 13 14  1  0
 14 15  1  0
  2 16  1  0
 16 17  1  0
 17 18  2  0
 18 19  1  0
 19 20  2  0
 20 21  1  0
 21 22  2  0
 22 23  1  0
 23 24  1  0
 24 25  2  0
 25 26  1  0
 26 27  1  0
 27 28  2  0
 20 29  1  0
 29 30  2  0
 12  7  1  0
 30 17  1  0
 15 10  1  0
 28 21  1  0
 27 23  1  0
  3 31  1  0
  3 32  1  0
  4 33  1  0
  8 34  1  0
  9 35  1  0
 12 36  1  0
 14 37  1  0
 14 38  1  0
 16 39  1  0
 18 40  1  0
 19 41  1  0
 22 42  1  0
 24 43  1  0
 25 44  1  0
 29 45  1  0
 30 46  1  0
M  END
>  <Energy>  (1291) 
371.23003089481881

>  <compound_id>  (1291) 
47162

>  <target_id>  (1291) 
1

>  <reference_id>  (1291) 
52

>  <inspiration_ids>  (1291) 
[13, 52]

>  <energy_score>  (1291) 
240.47062640006402

>  <distance_score>  (1291) 
8.134483694663578

>  <path>  (1291) 
/opt/xchem-fragalysis-2/maxwin/BulkDock/SCRATCH/511023/C47162-P52/C47162-P52.minimised.mol

>  <scratch_subdir>  (1291) 
/opt/xchem-fragalysis-2/maxwin/BulkDock/SCRATCH/511023/C47162-P52

>  <fragmenstein_runtime>  (1291) 
31.612691164016724

>  <fragmenstein_outcome>  (1291) 
too moved

>  <fragmenstein_mode>  (1291) 
expansion

>  <fragmenstein_error>  (1291) 


$$$$
C47162-P13
     RDKit          3D

 46 50  0  0  0  0  0  0  0  0999 V2000
   -5.3541   -8.5563   36.4445 O   0  0  0  0  0  0  0  0  0  0  0  0
   -4.5579   -9.2070   35.8344 C   0  0  0  0  0  0  0  0  0  0  0  0
   -3.0166   -9.1160   35.8718 C   0  0  0  0  0  0  0  0  0  0  0  0
   -2.4230   -8.2218   34.7968 N   0  0  0  0  0  0  0  0  0  0  0  0
   -1.5691   -7.0475   34.8976 C   0  0  0  0  0  0  0  0  0  0  0  0
   -1.1834   -6.4421   35.8592 O   0  0  0  0  0  0  0  0  0  0  0  0
   -1.1185   -6.4085   33.5707 C   0  0  0  0  0  0  0  0  0  0  0  0
   -0.8320   -7.1380   32.4023 C   0  0  0  0  0  0  0  0  0  0  0  0
   -0.4669   -6.4819   31.2041 C   0  0  0  0  0  0  0  0  0  0  0  0
   -0.4297   -5.1001   31.1770 C   0  0  0  0  0  0  0  0  0  0  0  0
   -0.6916   -4.3694   32.3019 C   0  0  0  0  0  0  0  0  0  0  0  0
   -0.9804   -4.9941   33.5091 C   0  0  0  0  0  0  0  0  0  0  0  0
   -0.6775   -3.0288   32.0564 O   0  0  0  0  0  0  0  0  0  0  0  0
   -0.4187   -3.0030   30.6333 C   0  0  0  0  0  0  0  0  0  0  0  0
   -0.1908   -4.3200   30.0887 O   0  0  0  0  0  0  0  0  0  0  0  0
   -4.7393  -10.2072   34.7950 N   0  0  0  0  0  0  0  0  0  0  0  0
   -6.1486  -10.7393   33.9703 C   0  0  0  0  0  0  0  0  0  0  0  0
   -7.6605  -11.3110   34.3145 C   0  0  0  0  0  0  0  0  0  0  0  0
   -8.4249  -12.0321   33.2153 C   0  0  0  0  0  0  0  0  0  0  0  0
   -8.2565  -13.3382   33.0008 C   0  0  0  0  0  0  0  0  0  0  0  0
   -9.4838  -14.7170   33.0325 C   0  0  0  0  0  0  0  0  0  0  0  0
  -10.7884  -14.9430   33.5269 C   0  0  0  0  0  0  0  0  0  0  0  0
  -10.8784  -16.0022   34.4560 N   0  0  0  0  0  0  0  0  0  0  0  0
  -11.8030  -16.6245   35.2858 C   0  0  0  0  0  0  0  0  0  0  0  0
  -11.3408  -17.8133   35.7146 C   0  0  0  0  0  0  0  0  0  0  0  0
   -9.7610  -18.2154   35.0150 S   0  0  0  0  0  0  0  0  0  0  0  0
   -9.7848  -16.7042   34.1497 C   0  0  0  0  0  0  0  0  0  0  0  0
   -9.3302  -16.1538   32.9957 N   0  0  0  0  0  0  0  0  0  0  0  0
   -6.9899  -12.9166   32.4171 C   0  0  0  0  0  0  0  0  0  0  0  0
   -6.0999  -11.5736   32.8354 C   0  0  0  0  0  0  0  0  0  0  0  0
   -2.6320  -10.1210   36.0411 H   0  0  0  0  0  0  0  0  0  0  0  0
   -2.4930   -8.6497   36.6230 H   0  0  0  0  0  0  0  0  0  0  0  0
   -2.4725   -8.5111   33.8332 H   0  0  0  0  0  0  0  0  0  0  0  0
   -0.8679   -8.2233   32.4171 H   0  0  0  0  0  0  0  0  0  0  0  0
   -0.2484   -7.0515   30.3085 H   0  0  0  0  0  0  0  0  0  0  0  0
   -1.1710   -4.3891   34.3931 H   0  0  0  0  0  0  0  0  0  0  0  0
    0.4682   -2.3869   30.4489 H   0  0  0  0  0  0  0  0  0  0  0  0
   -1.2798   -2.5531   30.1253 H   0  0  0  0  0  0  0  0  0  0  0  0
   -3.8404  -10.6134   34.5741 H   0  0  0  0  0  0  0  0  0  0  0  0
   -7.8354  -11.5353   35.3809 H   0  0  0  0  0  0  0  0  0  0  0  0
   -8.6567  -11.3935   32.3428 H   0  0  0  0  0  0  0  0  0  0  0  0
  -11.7176  -14.9409   32.9623 H   0  0  0  0  0  0  0  0  0  0  0  0
  -12.7436  -16.1569   35.5155 H   0  0  0  0  0  0  0  0  0  0  0  0
  -11.8531  -18.4928   36.3808 H   0  0  0  0  0  0  0  0  0  0  0  0
   -6.6286  -13.5283   31.5739 H   0  0  0  0  0  0  0  0  0  0  0  0
   -5.6138  -11.1039   32.0262 H   0  0  0  0  0  0  0  0  0  0  0  0
  1  2  2  0
  2  3  1  0
  3  4  1  0
  4  5  1  0
  5  6  2  0
  5  7  1  0
  7  8  2  0
  8  9  1  0
  9 10  2  0
 10 11  1  0
 11 12  2  0
 11 13  1  0
 13 14  1  0
 14 15  1  0
  2 16  1  0
 16 17  1  0
 17 18  2  0
 18 19  1  0
 19 20  2  0
 20 21  1  0
 21 22  2  0
 22 23  1  0
 23 24  1  0
 24 25  2  0
 25 26  1  0
 26 27  1  0
 27 28  2  0
 20 29  1  0
 29 30  2  0
 12  7  1  0
 30 17  1  0
 15 10  1  0
 28 21  1  0
 27 23  1  0
  3 31  1  0
  3 32  1  0
  4 33  1  0
  8 34  1  0
  9 35  1  0
 12 36  1  0
 14 37  1  0
 14 38  1  0
 16 39  1  0
 18 40  1  0
 19 41  1  0
 22 42  1  0
 24 43  1  0
 25 44  1  0
 29 45  1  0
 30 46  1  0
M  END
>  <Energy>  (1292) 
492.90678648096122

>  <compound_id>  (1292) 
47162

>  <target_id>  (1292) 
1

>  <reference_id>  (1292) 
13

>  <inspiration_ids>  (1292) 
[13, 52]

>  <energy_score>  (1292) 
362.14738198619557

>  <distance_score>  (1292) 
7.6103164747492045

>  <path>  (1292) 
/opt/xchem-fragalysis-2/maxwin/BulkDock/SCRATCH/511023/C47162-P13/C47162-P13.minimised.mol

>  <scratch_subdir>  (1292) 
/opt/xchem-fragalysis-2/maxwin/BulkDock/SCRATCH/511023/C47162-P13

>  <fragmenstein_runtime>  (1292) 
44.19608020782471

>  <fragmenstein_outcome>  (1292) 
too moved

>  <fragmenstein_mode>  (1292) 
expansion

>  <fragmenstein_error>  (1292) 


$$$$
C47162-P52
     RDKit          3D

 46 50  0  0  0  0  0  0  0  0999 V2000
   -2.7442  -13.2502   28.8749 O   0  0  0  0  0  0  0  0  0  0  0  0
   -3.4993  -12.2544   28.8196 C   0  0  0  0  0  0  0  0  0  0  0  0
   -2.6721  -10.7272   28.2768 C   0  0  0  0  0  0  0  0  0  0  0  0
   -2.1776   -9.2825   28.3850 N   0  0  0  0  0  0  0  0  0  0  0  0
   -1.3083   -8.4974   27.5075 C   0  0  0  0  0  0  0  0  0  0  0  0
   -0.6977   -8.8159   26.5257 O   0  0  0  0  0  0  0  0  0  0  0  0
   -1.2426   -6.9197   27.8387 C   0  0  0  0  0  0  0  0  0  0  0  0
   -1.5326   -6.2510   29.0699 C   0  0  0  0  0  0  0  0  0  0  0  0
   -1.5244   -4.8421   29.2119 C   0  0  0  0  0  0  0  0  0  0  0  0
   -1.3521   -4.0762   28.0873 C   0  0  0  0  0  0  0  0  0  0  0  0
   -1.2448   -4.6675   26.8565 C   0  0  0  0  0  0  0  0  0  0  0  0
   -1.1585   -6.0541   26.7035 C   0  0  0  0  0  0  0  0  0  0  0  0
   -1.2182   -3.7409   25.8567 O   0  0  0  0  0  0  0  0  0  0  0  0
   -1.1971   -2.5068   26.6121 C   0  0  0  0  0  0  0  0  0  0  0  0
   -1.3626   -2.7167   28.0299 O   0  0  0  0  0  0  0  0  0  0  0  0
   -5.1663  -12.0915   29.2909 N   0  0  0  0  0  0  0  0  0  0  0  0
   -6.2380  -13.2405   30.0976 C   0  0  0  0  0  0  0  0  0  0  0  0
   -7.4001  -12.6373   30.6095 C   0  0  0  0  0  0  0  0  0  0  0  0
   -8.2191  -13.2515   31.8204 C   0  0  0  0  0  0  0  0  0  0  0  0
   -7.8213  -14.3041   32.7950 C   0  0  0  0  0  0  0  0  0  0  0  0
   -8.5054  -14.7388   34.0253 C   0  0  0  0  0  0  0  0  0  0  0  0
   -9.8634  -14.8610   34.2416 C   0  0  0  0  0  0  0  0  0  0  0  0
  -10.0163  -15.1448   35.5588 N   0  0  0  0  0  0  0  0  0  0  0  0
  -11.0757  -15.3776   36.4191 C   0  0  0  0  0  0  0  0  0  0  0  0
  -10.7208  -15.1318   37.6940 C   0  0  0  0  0  0  0  0  0  0  0  0
   -9.0225  -14.5609   37.8401 S   0  0  0  0  0  0  0  0  0  0  0  0
   -8.8122  -14.8533   36.1303 C   0  0  0  0  0  0  0  0  0  0  0  0
   -7.8465  -14.7518   35.2573 N   0  0  0  0  0  0  0  0  0  0  0  0
   -6.6128  -14.8921   32.5391 C   0  0  0  0  0  0  0  0  0  0  0  0
   -5.8444  -14.4566   31.3644 C   0  0  0  0  0  0  0  0  0  0  0  0
   -3.5756  -10.3060   28.7076 H   0  0  0  0  0  0  0  0  0  0  0  0
   -1.7541  -11.0519   28.7787 H   0  0  0  0  0  0  0  0  0  0  0  0
   -2.4592   -8.7130   29.1647 H   0  0  0  0  0  0  0  0  0  0  0  0
   -1.8389   -6.7867   29.9595 H   0  0  0  0  0  0  0  0  0  0  0  0
   -1.6786   -4.3773   30.1805 H   0  0  0  0  0  0  0  0  0  0  0  0
   -1.0026   -6.4680   25.7100 H   0  0  0  0  0  0  0  0  0  0  0  0
   -2.0001   -1.8532   26.2585 H   0  0  0  0  0  0  0  0  0  0  0  0
   -0.2366   -2.0069   26.4389 H   0  0  0  0  0  0  0  0  0  0  0  0
   -5.4576  -11.1288   29.1911 H   0  0  0  0  0  0  0  0  0  0  0  0
   -7.2696  -11.5660   30.6198 H   0  0  0  0  0  0  0  0  0  0  0  0
   -9.2358  -12.8932   31.8569 H   0  0  0  0  0  0  0  0  0  0  0  0
  -10.6991  -14.5268   33.6647 H   0  0  0  0  0  0  0  0  0  0  0  0
  -12.0458  -15.6507   36.0374 H   0  0  0  0  0  0  0  0  0  0  0  0
  -11.3626  -15.2021   38.5613 H   0  0  0  0  0  0  0  0  0  0  0  0
   -6.3212  -15.6976   33.1704 H   0  0  0  0  0  0  0  0  0  0  0  0
   -4.8378  -14.7401   31.6697 H   0  0  0  0  0  0  0  0  0  0  0  0
  1  2  2  0
  2  3  1  0
  3  4  1  0
  4  5  1  0
  5  6  2  0
  5  7  1  0
  7  8  2  0
  8  9  1  0
  9 10  2  0
 10 11  1  0
 11 12  2  0
 11 13  1  0
 13 14  1  0
 14 15  1  0
  2 16  1  0
 16 17  1  0
 17 18  2  0
 18 19  1  0
 19 20  2  0
 20 21  1  0
 21 22  2  0
 22 23  1  0
 23 24  1  0
 24 25  2  0
 25 26  1  0
 26 27  1  0
 27 28  2  0
 20 29  1  0
 29 30  2  0
 12  7  1  0
 30 17  1  0
 15 10  1  0
 28 21  1  0
 27 23  1  0
  3 31  1  0
  3 32  1  0
  4 33  1  0
  8 34  1  0
  9 35  1  0
 12 36  1  0
 14 37  1  0
 14 38  1  0
 16 39  1  0
 18 40  1  0
 19 41  1  0
 22 42  1  0
 24 43  1  0
 25 44  1  0
 29 45  1  0
 30 46  1  0
M  END
>  <Energy>  (1293) 
371.23003089481881

>  <compound_id>  (1293) 
47162

>  <target_id>  (1293) 
1

>  <reference_id>  (1293) 
52

>  <inspiration_ids>  (1293) 
[13, 52]

>  <energy_score>  (1293) 
240.47062640006402

>  <distance_score>  (1293) 
8.134483694663578

>  <path>  (1293) 
/opt/xchem-fragalysis-2/maxwin/BulkDock/SCRATCH/511023/C47162-P52/C47162-P52.minimised.mol

>  <scratch_subdir>  (1293) 
/opt/xchem-fragalysis-2/maxwin/BulkDock/SCRATCH/511023/C47162-P52

>  <fragmenstein_runtime>  (1293) 
36.874903202056885

>  <fragmenstein_outcome>  (1293) 
too moved

>  <fragmenstein_mode>  (1293) 
expansion

>  <fragmenstein_error>  (1293) 


$$$$
C47187-P13
     RDKit          3D

 42 45  0  0  0  0  0  0  0  0999 V2000
   -8.4349   -9.3814   28.5948 C   0  0  0  0  0  0  0  0  0  0  0  0
   -6.9986   -9.3530   27.8356 C   0  0  0  0  0  0  0  0  0  0  0  0
   -6.0406   -8.3219   29.0444 C   0  0  0  0  0  0  0  0  0  0  0  0
   -4.7981   -7.8902   28.8237 C   0  0  0  0  0  0  0  0  0  0  0  0
   -4.8728   -8.1069   27.6064 C   0  0  0  0  0  0  0  0  0  0  0  0
   -6.2054   -9.2249   27.1183 C   0  0  0  0  0  0  0  0  0  0  0  0
   -6.7964  -10.5035   26.2620 C   0  0  0  0  0  0  0  0  0  0  0  0
   -7.3747  -12.4781   26.0754 N   0  0  0  0  0  0  0  0  0  0  0  0
   -7.4986  -14.0060   27.3759 C   0  0  0  0  0  0  0  0  0  0  0  0
   -7.0871  -13.7729   28.4809 O   0  0  0  0  0  0  0  0  0  0  0  0
   -8.2186  -16.0483   27.3017 C   0  0  0  0  0  0  0  0  0  0  0  0
   -9.1397  -16.1318   26.5050 O   0  0  0  0  0  0  0  0  0  0  0  0
   -7.7637  -17.6778   28.3701 N   0  0  0  0  0  0  0  0  0  0  0  0
   -8.4830  -19.7061   28.3472 C   0  0  0  0  0  0  0  0  0  0  0  0
   -7.8337  -21.8282   28.1421 C   0  0  0  0  0  0  0  0  0  0  0  0
   -6.6125  -22.9355   28.9045 C   0  0  0  0  0  0  0  0  0  0  0  0
   -6.5597  -24.2523   30.3854 N   0  0  0  0  0  0  0  0  0  0  0  0
   -5.8349  -24.1371   32.0379 C   0  0  0  0  0  0  0  0  0  0  0  0
   -6.6492  -24.0029   33.1968 C   0  0  0  0  0  0  0  0  0  0  0  0
   -8.4190  -24.3905   32.9467 C   0  0  0  0  0  0  0  0  0  0  0  0
   -9.0154  -24.7346   31.7513 C   0  0  0  0  0  0  0  0  0  0  0  0
   -8.3079  -24.6438   30.1028 C   0  0  0  0  0  0  0  0  0  0  0  0
   -8.5712  -23.6071   28.5475 N   0  0  0  0  0  0  0  0  0  0  0  0
   -3.4262   -7.6365   27.1077 O   0  0  0  0  0  0  0  0  0  0  0  0
   -2.6642   -7.2469   28.2631 C   0  0  0  0  0  0  0  0  0  0  0  0
   -3.5727   -7.4587   29.3287 O   0  0  0  0  0  0  0  0  0  0  0  0
   -9.3576   -8.9466   28.9657 H   0  0  0  0  0  0  0  0  0  0  0  0
   -8.0828   -9.8978   29.4583 H   0  0  0  0  0  0  0  0  0  0  0  0
   -9.0347   -9.5930   27.7424 H   0  0  0  0  0  0  0  0  0  0  0  0
   -6.4142   -7.3650   29.3630 H   0  0  0  0  0  0  0  0  0  0  0  0
   -6.9848   -8.3857   26.4095 H   0  0  0  0  0  0  0  0  0  0  0  0
   -7.6667  -12.8067   25.1647 H   0  0  0  0  0  0  0  0  0  0  0  0
   -6.9357  -17.4852   28.9201 H   0  0  0  0  0  0  0  0  0  0  0  0
   -9.5000  -19.8804   28.2383 H   0  0  0  0  0  0  0  0  0  0  0  0
   -8.2749  -19.5298   29.3454 H   0  0  0  0  0  0  0  0  0  0  0  0
   -7.3584  -23.0471   29.5172 H   0  0  0  0  0  0  0  0  0  0  0  0
   -4.9748  -23.4924   32.1717 H   0  0  0  0  0  0  0  0  0  0  0  0
   -6.3883  -23.4530   34.1050 H   0  0  0  0  0  0  0  0  0  0  0  0
   -9.0102  -23.5386   33.2415 H   0  0  0  0  0  0  0  0  0  0  0  0
  -10.0224  -24.2926   31.7681 H   0  0  0  0  0  0  0  0  0  0  0  0
   -2.2389   -6.2603   28.1680 H   0  0  0  0  0  0  0  0  0  0  0  0
   -1.7403   -7.7745   28.5479 H   0  0  0  0  0  0  0  0  0  0  0  0
  1  2  1  0
  2  3  2  0
  3  4  1  0
  4  5  2  0
  5  6  1  0
  6  7  2  0
  7  8  1  0
  8  9  1  0
  9 10  2  0
  9 11  1  0
 11 12  2  0
 11 13  1  0
 13 14  1  0
 14 15  1  0
 15 16  2  0
 16 17  1  0
 17 18  1  0
 18 19  2  0
 19 20  1  0
 20 21  2  0
 21 22  1  0
 22 23  2  0
  5 24  1  0
 24 25  1  0
 25 26  1  0
  7  2  1  0
 23 15  1  0
 26  4  1  0
 22 17  1  0
  1 27  1  0
  1 28  1  0
  1 29  1  0
  3 30  1  0
  6 31  1  0
  8 32  1  0
 13 33  1  0
 14 34  1  0
 14 35  1  0
 16 36  1  0
 18 37  1  0
 19 38  1  0
 20 39  1  0
 21 40  1  0
 25 41  1  0
 25 42  1  0
M  END
>  <Energy>  (1294) 
2564.3856438171802

>  <compound_id>  (1294) 
47187

>  <target_id>  (1294) 
1

>  <reference_id>  (1294) 
13

>  <inspiration_ids>  (1294) 
[13, 52]

>  <energy_score>  (1294) 
2438.0154834988243

>  <distance_score>  (1294) 
8.18030390439447

>  <path>  (1294) 
/opt/xchem-fragalysis-2/maxwin/BulkDock/SCRATCH/511023/C47187-P13/C47187-P13.minimised.mol

>  <scratch_subdir>  (1294) 
/opt/xchem-fragalysis-2/maxwin/BulkDock/SCRATCH/511023/C47187-P13

>  <fragmenstein_runtime>  (1294) 
19.014076948165894

>  <fragmenstein_outcome>  (1294) 
too moved

>  <fragmenstein_mode>  (1294) 
expansion

>  <fragmenstein_error>  (1294) 


$$$$
C47187-P52
     RDKit          3D

 42 45  0  0  0  0  0  0  0  0999 V2000
   -1.3101  -10.7621   30.3263 C   0  0  0  0  0  0  0  0  0  0  0  0
   -2.8993   -9.9563   29.3878 C   0  0  0  0  0  0  0  0  0  0  0  0
   -2.4313   -8.4341   29.6192 C   0  0  0  0  0  0  0  0  0  0  0  0
   -1.7019   -8.0214   28.6189 C   0  0  0  0  0  0  0  0  0  0  0  0
   -2.1461   -8.8056   27.6327 C   0  0  0  0  0  0  0  0  0  0  0  0
   -3.4640  -10.0785   27.8313 C   0  0  0  0  0  0  0  0  0  0  0  0
   -3.9940  -10.9020   28.8861 C   0  0  0  0  0  0  0  0  0  0  0  0
   -5.7200  -11.5817   28.7252 N   0  0  0  0  0  0  0  0  0  0  0  0
   -6.4501  -13.3069   29.1315 C   0  0  0  0  0  0  0  0  0  0  0  0
   -5.7885  -14.1637   29.6827 O   0  0  0  0  0  0  0  0  0  0  0  0
   -8.2052  -14.0772   28.6166 C   0  0  0  0  0  0  0  0  0  0  0  0
   -9.0967  -13.3231   28.3715 O   0  0  0  0  0  0  0  0  0  0  0  0
   -8.3943  -15.8782   28.6741 N   0  0  0  0  0  0  0  0  0  0  0  0
  -10.0102  -17.0333   28.5109 C   0  0  0  0  0  0  0  0  0  0  0  0
  -10.2170  -18.9796   29.3781 C   0  0  0  0  0  0  0  0  0  0  0  0
  -10.5308  -20.3531   28.8564 C   0  0  0  0  0  0  0  0  0  0  0  0
  -11.0219  -21.1951   29.8233 N   0  0  0  0  0  0  0  0  0  0  0  0
  -11.3585  -22.5445   29.7250 C   0  0  0  0  0  0  0  0  0  0  0  0
  -11.6466  -23.2237   30.8476 C   0  0  0  0  0  0  0  0  0  0  0  0
  -11.6573  -22.5131   32.1181 C   0  0  0  0  0  0  0  0  0  0  0  0
  -11.3582  -21.2023   32.1894 C   0  0  0  0  0  0  0  0  0  0  0  0
  -10.9963  -20.5047   31.0040 C   0  0  0  0  0  0  0  0  0  0  0  0
  -10.5384  -19.2948   30.8042 N   0  0  0  0  0  0  0  0  0  0  0  0
   -1.5342   -8.3121   26.4826 O   0  0  0  0  0  0  0  0  0  0  0  0
   -0.8249   -7.1704   26.9280 C   0  0  0  0  0  0  0  0  0  0  0  0
   -1.1597   -6.8632   28.2821 O   0  0  0  0  0  0  0  0  0  0  0  0
   -1.2488  -10.8041   31.4409 H   0  0  0  0  0  0  0  0  0  0  0  0
   -1.0487  -11.8170   30.0985 H   0  0  0  0  0  0  0  0  0  0  0  0
   -0.4950  -10.1737   30.0188 H   0  0  0  0  0  0  0  0  0  0  0  0
   -2.6998   -7.8572   30.4953 H   0  0  0  0  0  0  0  0  0  0  0  0
   -3.9964  -10.3294   26.9152 H   0  0  0  0  0  0  0  0  0  0  0  0
   -6.3869  -11.0578   28.1940 H   0  0  0  0  0  0  0  0  0  0  0  0
   -7.5124  -16.2989   28.9853 H   0  0  0  0  0  0  0  0  0  0  0  0
   -9.7753  -17.0015   27.4457 H   0  0  0  0  0  0  0  0  0  0  0  0
  -10.8767  -16.4002   28.7455 H   0  0  0  0  0  0  0  0  0  0  0  0
  -10.5337  -20.7294   27.8471 H   0  0  0  0  0  0  0  0  0  0  0  0
  -11.3127  -23.0006   28.7450 H   0  0  0  0  0  0  0  0  0  0  0  0
  -11.8595  -24.2842   30.8356 H   0  0  0  0  0  0  0  0  0  0  0  0
  -11.9332  -23.0557   33.0164 H   0  0  0  0  0  0  0  0  0  0  0  0
  -11.3693  -20.6652   33.1307 H   0  0  0  0  0  0  0  0  0  0  0  0
    0.2133   -7.4774   26.7895 H   0  0  0  0  0  0  0  0  0  0  0  0
   -1.0463   -6.3108   26.2857 H   0  0  0  0  0  0  0  0  0  0  0  0
  1  2  1  0
  2  3  2  0
  3  4  1  0
  4  5  2  0
  5  6  1  0
  6  7  2  0
  7  8  1  0
  8  9  1  0
  9 10  2  0
  9 11  1  0
 11 12  2  0
 11 13  1  0
 13 14  1  0
 14 15  1  0
 15 16  2  0
 16 17  1  0
 17 18  1  0
 18 19  2  0
 19 20  1  0
 20 21  2  0
 21 22  1  0
 22 23  2  0
  5 24  1  0
 24 25  1  0
 25 26  1  0
  7  2  1  0
 23 15  1  0
 26  4  1  0
 22 17  1  0
  1 27  1  0
  1 28  1  0
  1 29  1  0
  3 30  1  0
  6 31  1  0
  8 32  1  0
 13 33  1  0
 14 34  1  0
 14 35  1  0
 16 36  1  0
 18 37  1  0
 19 38  1  0
 20 39  1  0
 21 40  1  0
 25 41  1  0
 25 42  1  0
M  END
>  <Energy>  (1295) 
890.69652508603485

>  <compound_id>  (1295) 
47187

>  <target_id>  (1295) 
1

>  <reference_id>  (1295) 
52

>  <inspiration_ids>  (1295) 
[13, 52]

>  <energy_score>  (1295) 
764.3263647676526

>  <distance_score>  (1295) 
7.5633776467038585

>  <path>  (1295) 
/opt/xchem-fragalysis-2/maxwin/BulkDock/SCRATCH/511023/C47187-P52/C47187-P52.minimised.mol

>  <scratch_subdir>  (1295) 
/opt/xchem-fragalysis-2/maxwin/BulkDock/SCRATCH/511023/C47187-P52

>  <fragmenstein_runtime>  (1295) 
19.251149654388428

>  <fragmenstein_outcome>  (1295) 
too moved

>  <fragmenstein_mode>  (1295) 
expansion

>  <fragmenstein_error>  (1295) 


$$$$
C47206-P40
     RDKit          3D

 39 41  0  0  0  0  0  0  0  0999 V2000
    3.8879    4.7766   25.2087 O   0  0  0  0  0  0  0  0  0  0  0  0
    3.6044    3.8412   24.5646 C   0  0  0  0  0  0  0  0  0  0  0  0
    3.7277    2.3650   24.8972 N   0  0  0  0  0  0  0  0  0  0  0  0
    4.3128    1.7000   26.0487 C   0  0  0  0  0  0  0  0  0  0  0  0
    3.7188    0.3914   26.4920 C   0  0  0  0  0  0  0  0  0  0  0  0
    4.2607   -0.8875   26.4739 C   0  0  0  0  0  0  0  0  0  0  0  0
    3.4288   -1.7583   27.2383 C   0  0  0  0  0  0  0  0  0  0  0  0
    3.4786   -3.1292   27.5736 C   0  0  0  0  0  0  0  0  0  0  0  0
    2.4542   -3.6855   28.3497 C   0  0  0  0  0  0  0  0  0  0  0  0
    1.3960   -2.8948   28.7948 C   0  0  0  0  0  0  0  0  0  0  0  0
    1.3302   -1.5320   28.4766 C   0  0  0  0  0  0  0  0  0  0  0  0
    2.3613   -0.9896   27.6956 C   0  0  0  0  0  0  0  0  0  0  0  0
    2.5482    0.2954   27.2171 N   0  0  0  0  0  0  0  0  0  0  0  0
    2.9724    3.7615   23.2225 N   0  0  0  0  0  0  0  0  0  0  0  0
    2.4246    4.8253   22.3452 C   0  0  0  0  0  0  0  0  0  0  0  0
    1.0950    4.3759   21.7052 C   0  0  0  0  0  0  0  0  0  0  0  0
    0.1267    4.0264   22.7016 O   0  0  0  0  0  0  0  0  0  0  0  0
    3.3669    5.3406   21.2635 C   0  0  0  0  0  0  0  0  0  0  0  0
    3.1656    5.3568   19.9482 N   0  0  0  0  0  0  0  0  0  0  0  0
    4.3069    5.8792   19.3894 C   0  0  0  0  0  0  0  0  0  0  0  0
    5.1973    6.2441   20.3663 C   0  0  0  0  0  0  0  0  0  0  0  0
    4.5743    5.9326   21.5474 N   0  0  0  0  0  0  0  0  0  0  0  0
    3.4714    1.8182   24.0892 H   0  0  0  0  0  0  0  0  0  0  0  0
    5.3718    1.5523   25.8103 H   0  0  0  0  0  0  0  0  0  0  0  0
    4.2849    2.4138   26.8804 H   0  0  0  0  0  0  0  0  0  0  0  0
    5.1956   -1.1603   25.9991 H   0  0  0  0  0  0  0  0  0  0  0  0
    4.3061   -3.7422   27.2274 H   0  0  0  0  0  0  0  0  0  0  0  0
    2.4926   -4.7383   28.6107 H   0  0  0  0  0  0  0  0  0  0  0  0
    0.6010   -3.3352   29.3911 H   0  0  0  0  0  0  0  0  0  0  0  0
    0.4944   -0.9235   28.8073 H   0  0  0  0  0  0  0  0  0  0  0  0
    1.9261    1.0684   27.4096 H   0  0  0  0  0  0  0  0  0  0  0  0
    2.7950    2.8013   22.9968 H   0  0  0  0  0  0  0  0  0  0  0  0
    2.2135    5.6647   23.0205 H   0  0  0  0  0  0  0  0  0  0  0  0
    1.2428    3.5023   21.0604 H   0  0  0  0  0  0  0  0  0  0  0  0
    0.6692    5.1836   21.0988 H   0  0  0  0  0  0  0  0  0  0  0  0
   -0.7309    3.9661   22.2468 H   0  0  0  0  0  0  0  0  0  0  0  0
    4.4186    5.9719   18.3175 H   0  0  0  0  0  0  0  0  0  0  0  0
    6.1808    6.6884   20.3312 H   0  0  0  0  0  0  0  0  0  0  0  0
    4.9510    6.0373   22.4792 H   0  0  0  0  0  0  0  0  0  0  0  0
  1  2  2  0
  2  3  1  0
  3  4  1  0
  4  5  1  0
  5  6  2  0
  6  7  1  0
  7  8  2  0
  8  9  1  0
  9 10  2  0
 10 11  1  0
 11 12  2  0
 12 13  1  0
  2 14  1  0
 14 15  1  0
 15 16  1  0
 16 17  1  0
 15 18  1  0
 18 19  2  0
 19 20  1  0
 20 21  2  0
 21 22  1  0
 13  5  1  0
 22 18  1  0
 12  7  1  0
  3 23  1  0
  4 24  1  0
  4 25  1  0
  6 26  1  0
  8 27  1  0
  9 28  1  0
 10 29  1  0
 11 30  1  0
 13 31  1  0
 14 32  1  0
 15 33  1  0
 16 34  1  0
 16 35  1  0
 17 36  1  0
 20 37  1  0
 21 38  1  0
 22 39  1  0
M  END
>  <Energy>  (1296) 
-40.500717221373854

>  <compound_id>  (1296) 
47206

>  <target_id>  (1296) 
1

>  <reference_id>  (1296) 
40

>  <inspiration_ids>  (1296) 
[40, 80]

>  <energy_score>  (1296) 
-1.8020519882404642

>  <distance_score>  (1296) 
9.482116762726722

>  <path>  (1296) 
/opt/xchem-fragalysis-2/maxwin/BulkDock/SCRATCH/511023/C47206-P40/C47206-P40.minimised.mol

>  <scratch_subdir>  (1296) 
/opt/xchem-fragalysis-2/maxwin/BulkDock/SCRATCH/511023/C47206-P40

>  <fragmenstein_runtime>  (1296) 
11.379829406738281

>  <fragmenstein_outcome>  (1296) 
too moved

>  <fragmenstein_mode>  (1296) 
expansion

>  <fragmenstein_error>  (1296) 


$$$$
C47206-P80
     RDKit          3D

 39 41  0  0  0  0  0  0  0  0999 V2000
    5.1998   -0.3214   24.0398 O   0  0  0  0  0  0  0  0  0  0  0  0
    4.9281   -1.2879   23.5073 C   0  0  0  0  0  0  0  0  0  0  0  0
    4.1278   -2.3184   23.9783 N   0  0  0  0  0  0  0  0  0  0  0  0
    3.3641   -2.4398   25.1595 C   0  0  0  0  0  0  0  0  0  0  0  0
    3.6298   -2.2976   26.6222 C   0  0  0  0  0  0  0  0  0  0  0  0
    4.6638   -2.0631   27.5004 C   0  0  0  0  0  0  0  0  0  0  0  0
    4.2070   -2.4368   28.8085 C   0  0  0  0  0  0  0  0  0  0  0  0
    4.8342   -2.6445   30.0494 C   0  0  0  0  0  0  0  0  0  0  0  0
    4.0751   -3.1089   31.1336 C   0  0  0  0  0  0  0  0  0  0  0  0
    2.7064   -3.3418   31.0083 C   0  0  0  0  0  0  0  0  0  0  0  0
    2.0565   -3.1209   29.7943 C   0  0  0  0  0  0  0  0  0  0  0  0
    2.8414   -2.6866   28.7205 C   0  0  0  0  0  0  0  0  0  0  0  0
    2.5021   -2.4321   27.4219 N   0  0  0  0  0  0  0  0  0  0  0  0
    5.5745   -1.6870   21.8324 N   0  0  0  0  0  0  0  0  0  0  0  0
    6.8003   -0.7088   20.6664 C   0  0  0  0  0  0  0  0  0  0  0  0
    7.6004    0.5856   20.5707 C   0  0  0  0  0  0  0  0  0  0  0  0
    7.6830    1.7235   21.4153 O   0  0  0  0  0  0  0  0  0  0  0  0
    6.9130   -0.6234   18.7553 C   0  0  0  0  0  0  0  0  0  0  0  0
    6.0436   -1.0658   17.7051 N   0  0  0  0  0  0  0  0  0  0  0  0
    6.7265   -0.8979   16.3177 C   0  0  0  0  0  0  0  0  0  0  0  0
    7.9898   -0.3757   16.4457 C   0  0  0  0  0  0  0  0  0  0  0  0
    8.0414    0.0595   17.7862 N   0  0  0  0  0  0  0  0  0  0  0  0
    4.0089   -2.9648   23.2669 H   0  0  0  0  0  0  0  0  0  0  0  0
    2.7539   -1.5502   25.0446 H   0  0  0  0  0  0  0  0  0  0  0  0
    2.9482   -3.4220   25.0719 H   0  0  0  0  0  0  0  0  0  0  0  0
    5.6825   -1.8339   27.2135 H   0  0  0  0  0  0  0  0  0  0  0  0
    5.9000   -2.4681   30.1565 H   0  0  0  0  0  0  0  0  0  0  0  0
    4.5628   -3.2775   32.0906 H   0  0  0  0  0  0  0  0  0  0  0  0
    2.1384   -3.6939   31.8664 H   0  0  0  0  0  0  0  0  0  0  0  0
    0.9921   -3.2973   29.6864 H   0  0  0  0  0  0  0  0  0  0  0  0
    1.5679   -2.5071   27.0448 H   0  0  0  0  0  0  0  0  0  0  0  0
    5.2938   -2.6132   21.5780 H   0  0  0  0  0  0  0  0  0  0  0  0
    5.9917   -0.0785   20.9835 H   0  0  0  0  0  0  0  0  0  0  0  0
    8.4405   -0.0929   20.5927 H   0  0  0  0  0  0  0  0  0  0  0  0
    7.4239    1.1401   19.6471 H   0  0  0  0  0  0  0  0  0  0  0  0
    7.6005    2.5530   20.9113 H   0  0  0  0  0  0  0  0  0  0  0  0
    6.2030   -1.2543   15.4376 H   0  0  0  0  0  0  0  0  0  0  0  0
    8.7387   -0.0833   15.7221 H   0  0  0  0  0  0  0  0  0  0  0  0
    7.9627    1.0590   17.8325 H   0  0  0  0  0  0  0  0  0  0  0  0
  1  2  2  0
  2  3  1  0
  3  4  1  0
  4  5  1  0
  5  6  2  0
  6  7  1  0
  7  8  2  0
  8  9  1  0
  9 10  2  0
 10 11  1  0
 11 12  2  0
 12 13  1  0
  2 14  1  0
 14 15  1  0
 15 16  1  0
 16 17  1  0
 15 18  1  0
 18 19  2  0
 19 20  1  0
 20 21  2  0
 21 22  1  0
 13  5  1  0
 22 18  1  0
 12  7  1  0
  3 23  1  0
  4 24  1  0
  4 25  1  0
  6 26  1  0
  8 27  1  0
  9 28  1  0
 10 29  1  0
 11 30  1  0
 13 31  1  0
 14 32  1  0
 15 33  1  0
 16 34  1  0
 16 35  1  0
 17 36  1  0
 20 37  1  0
 21 38  1  0
 22 39  1  0
M  END
>  <Energy>  (1297) 
332.50450792684001

>  <compound_id>  (1297) 
47206

>  <target_id>  (1297) 
1

>  <reference_id>  (1297) 
80

>  <inspiration_ids>  (1297) 
[40, 80]

>  <energy_score>  (1297) 
371.20317315997085

>  <distance_score>  (1297) 
6.321694074633254

>  <path>  (1297) 
/opt/xchem-fragalysis-2/maxwin/BulkDock/SCRATCH/511023/C47206-P80/C47206-P80.minimised.mol

>  <scratch_subdir>  (1297) 
/opt/xchem-fragalysis-2/maxwin/BulkDock/SCRATCH/511023/C47206-P80

>  <fragmenstein_runtime>  (1297) 
9.767143249511719

>  <fragmenstein_outcome>  (1297) 
too moved

>  <fragmenstein_mode>  (1297) 
expansion

>  <fragmenstein_error>  (1297) 


$$$$
C47207-P40
     RDKit          3D

 31 33  0  0  0  0  0  0  0  0999 V2000
   10.7435   -6.4844   21.4816 O   0  0  0  0  0  0  0  0  0  0  0  0
   10.3226   -5.2687   20.7617 S   0  0  0  0  0  0  0  0  0  0  0  0
   10.3070   -5.4754   19.3396 O   0  0  0  0  0  0  0  0  0  0  0  0
    8.1651   -4.2700   20.9230 N   0  0  0  0  0  0  0  0  0  0  0  0
    7.0010   -4.7286   22.5675 C   0  0  0  0  0  0  0  0  0  0  0  0
    6.2665   -5.8021   23.8121 C   0  0  0  0  0  0  0  0  0  0  0  0
    6.5714   -7.0171   24.3850 C   0  0  0  0  0  0  0  0  0  0  0  0
    5.5535   -7.4190   25.2262 N   0  0  0  0  0  0  0  0  0  0  0  0
    4.9424   -6.3235   25.7551 C   0  0  0  0  0  0  0  0  0  0  0  0
    4.0521   -6.2087   26.8377 C   0  0  0  0  0  0  0  0  0  0  0  0
    3.6740   -4.9302   27.2419 C   0  0  0  0  0  0  0  0  0  0  0  0
    4.1906   -3.8199   26.5894 C   0  0  0  0  0  0  0  0  0  0  0  0
    5.0630   -3.9674   25.4930 C   0  0  0  0  0  0  0  0  0  0  0  0
    5.4362   -5.2526   25.0070 C   0  0  0  0  0  0  0  0  0  0  0  0
   11.8629   -4.3494   21.1881 C   0  0  0  0  0  0  0  0  0  0  0  0
   12.9913   -4.3306   20.3745 C   0  0  0  0  0  0  0  0  0  0  0  0
   13.9285   -3.6439   21.0800 N   0  0  0  0  0  0  0  0  0  0  0  0
   13.3897   -3.3555   22.3034 C   0  0  0  0  0  0  0  0  0  0  0  0
   12.1511   -3.7872   22.4181 N   0  0  0  0  0  0  0  0  0  0  0  0
    7.6463   -4.8724   20.2801 H   0  0  0  0  0  0  0  0  0  0  0  0
    7.3959   -4.6374   23.4942 H   0  0  0  0  0  0  0  0  0  0  0  0
    6.4987   -3.7212   22.6990 H   0  0  0  0  0  0  0  0  0  0  0  0
    7.3429   -7.7410   24.2581 H   0  0  0  0  0  0  0  0  0  0  0  0
    5.4589   -8.3671   25.5592 H   0  0  0  0  0  0  0  0  0  0  0  0
    3.7096   -7.0876   27.3686 H   0  0  0  0  0  0  0  0  0  0  0  0
    3.0107   -4.7961   28.0910 H   0  0  0  0  0  0  0  0  0  0  0  0
    3.9324   -2.8182   26.9258 H   0  0  0  0  0  0  0  0  0  0  0  0
    5.4610   -3.0737   25.0190 H   0  0  0  0  0  0  0  0  0  0  0  0
   13.1677   -4.7307   19.3849 H   0  0  0  0  0  0  0  0  0  0  0  0
   14.8741   -3.4457   20.7827 H   0  0  0  0  0  0  0  0  0  0  0  0
   13.9516   -2.8445   23.0740 H   0  0  0  0  0  0  0  0  0  0  0  0
  1  2  2  0
  2  3  2  0
  2  4  1  0
  4  5  1  0
  5  6  1  0
  6  7  2  0
  7  8  1  0
  8  9  1  0
  9 10  2  0
 10 11  1  0
 11 12  2  0
 12 13  1  0
 13 14  2  0
  2 15  1  0
 15 16  2  0
 16 17  1  0
 17 18  1  0
 18 19  2  0
 14  6  1  0
 19 15  1  0
 14  9  1  0
  4 20  1  0
  5 21  1  0
  5 22  1  0
  7 23  1  0
  8 24  1  0
 10 25  1  0
 11 26  1  0
 12 27  1  0
 13 28  1  0
 16 29  1  0
 17 30  1  0
 18 31  1  0
M  END
>  <Energy>  (1298) 
359.75513829614067

>  <compound_id>  (1298) 
47207

>  <target_id>  (1298) 
1

>  <reference_id>  (1298) 
40

>  <inspiration_ids>  (1298) 
[40, 80]

>  <energy_score>  (1298) 
312.8797693748657

>  <distance_score>  (1298) 
6.249142222703753

>  <path>  (1298) 
/opt/xchem-fragalysis-2/maxwin/BulkDock/SCRATCH/511023/C47207-P40/C47207-P40.minimised.mol

>  <scratch_subdir>  (1298) 
/opt/xchem-fragalysis-2/maxwin/BulkDock/SCRATCH/511023/C47207-P40

>  <fragmenstein_runtime>  (1298) 
5.485423803329468

>  <fragmenstein_outcome>  (1298) 
too moved

>  <fragmenstein_mode>  (1298) 
expansion

>  <fragmenstein_error>  (1298) 


$$$$
C47207-P80
     RDKit          3D

 31 33  0  0  0  0  0  0  0  0999 V2000
    8.1305   -3.3870   21.1670 O   0  0  0  0  0  0  0  0  0  0  0  0
    8.0354   -4.7410   20.8449 S   0  0  0  0  0  0  0  0  0  0  0  0
    7.2397   -5.1493   19.6588 O   0  0  0  0  0  0  0  0  0  0  0  0
    7.0695   -5.9435   22.7135 N   0  0  0  0  0  0  0  0  0  0  0  0
    5.2621   -6.7015   23.5572 C   0  0  0  0  0  0  0  0  0  0  0  0
    3.3122   -6.6238   24.4377 C   0  0  0  0  0  0  0  0  0  0  0  0
    2.4529   -5.3378   25.3138 C   0  0  0  0  0  0  0  0  0  0  0  0
    1.1221   -5.5948   26.3971 N   0  0  0  0  0  0  0  0  0  0  0  0
    0.2679   -6.2153   25.2884 C   0  0  0  0  0  0  0  0  0  0  0  0
   -0.9842   -6.4874   25.5756 C   0  0  0  0  0  0  0  0  0  0  0  0
   -1.1182   -7.5090   24.7595 C   0  0  0  0  0  0  0  0  0  0  0  0
   -0.6117   -7.7779   23.4499 C   0  0  0  0  0  0  0  0  0  0  0  0
    0.5603   -7.2751   23.0109 C   0  0  0  0  0  0  0  0  0  0  0  0
    1.3266   -6.5449   23.9645 C   0  0  0  0  0  0  0  0  0  0  0  0
   10.3180   -5.3395   20.4071 C   0  0  0  0  0  0  0  0  0  0  0  0
   11.6470   -5.4382   19.7098 C   0  0  0  0  0  0  0  0  0  0  0  0
   12.8036   -5.5170   20.5304 N   0  0  0  0  0  0  0  0  0  0  0  0
   12.6507   -4.4554   21.3332 C   0  0  0  0  0  0  0  0  0  0  0  0
   11.3735   -4.2257   21.2994 N   0  0  0  0  0  0  0  0  0  0  0  0
    7.0237   -6.7772   22.1085 H   0  0  0  0  0  0  0  0  0  0  0  0
    5.6950   -7.5056   24.1624 H   0  0  0  0  0  0  0  0  0  0  0  0
    5.5234   -5.8573   24.1731 H   0  0  0  0  0  0  0  0  0  0  0  0
    2.6643   -4.1780   25.3078 H   0  0  0  0  0  0  0  0  0  0  0  0
    0.7984   -4.8485   27.0029 H   0  0  0  0  0  0  0  0  0  0  0  0
   -1.4272   -6.3772   26.5516 H   0  0  0  0  0  0  0  0  0  0  0  0
   -1.7162   -8.2429   25.2824 H   0  0  0  0  0  0  0  0  0  0  0  0
   -1.1117   -8.5017   22.7985 H   0  0  0  0  0  0  0  0  0  0  0  0
    0.8949   -7.7052   22.0686 H   0  0  0  0  0  0  0  0  0  0  0  0
   11.9710   -4.9613   18.7762 H   0  0  0  0  0  0  0  0  0  0  0  0
   13.7215   -5.7265   20.1767 H   0  0  0  0  0  0  0  0  0  0  0  0
   13.4179   -3.9101   21.8648 H   0  0  0  0  0  0  0  0  0  0  0  0
  1  2  2  0
  2  3  2  0
  2  4  1  0
  4  5  1  0
  5  6  1  0
  6  7  2  0
  7  8  1  0
  8  9  1  0
  9 10  2  0
 10 11  1  0
 11 12  2  0
 12 13  1  0
 13 14  2  0
  2 15  1  0
 15 16  2  0
 16 17  1  0
 17 18  1  0
 18 19  2  0
 14  6  1  0
 19 15  1  0
 14  9  1  0
  4 20  1  0
  5 21  1  0
  5 22  1  0
  7 23  1  0
  8 24  1  0
 10 25  1  0
 11 26  1  0
 12 27  1  0
 13 28  1  0
 16 29  1  0
 17 30  1  0
 18 31  1  0
M  END
>  <Energy>  (1299) 
1056.1688160485089

>  <compound_id>  (1299) 
47207

>  <target_id>  (1299) 
1

>  <reference_id>  (1299) 
80

>  <inspiration_ids>  (1299) 
[40, 80]

>  <energy_score>  (1299) 
1009.2934471272349

>  <distance_score>  (1299) 
6.119695665923249

>  <path>  (1299) 
/opt/xchem-fragalysis-2/maxwin/BulkDock/SCRATCH/511023/C47207-P80/C47207-P80.minimised.mol

>  <scratch_subdir>  (1299) 
/opt/xchem-fragalysis-2/maxwin/BulkDock/SCRATCH/511023/C47207-P80

>  <fragmenstein_runtime>  (1299) 
5.408206224441528

>  <fragmenstein_outcome>  (1299) 
too moved

>  <fragmenstein_mode>  (1299) 
expansion

>  <fragmenstein_error>  (1299) 


$$$$
C47208-P40
     RDKit          3D

 44 46  0  0  0  0  0  0  0  0999 V2000
    2.5715   -6.3412   27.9396 C   0  0  0  0  0  0  0  0  0  0  0  0
    3.0277   -7.4972   27.2429 O   0  0  0  0  0  0  0  0  0  0  0  0
    4.2903   -7.3292   26.5537 C   0  0  0  0  0  0  0  0  0  0  0  0
    5.5067   -7.1093   27.5113 C   0  0  0  0  0  0  0  0  0  0  0  0
    5.3909   -5.7351   28.0145 N   0  0  0  0  0  0  0  0  0  0  0  0
    6.6908   -5.5256   27.0887 C   0  0  0  0  0  0  0  0  0  0  0  0
    6.9666   -6.1921   25.7347 C   0  0  0  0  0  0  0  0  0  0  0  0
    7.8369   -7.1745   25.5464 N   0  0  0  0  0  0  0  0  0  0  0  0
    7.4220   -7.8375   24.4286 C   0  0  0  0  0  0  0  0  0  0  0  0
    6.3994   -7.1460   23.8359 C   0  0  0  0  0  0  0  0  0  0  0  0
    6.2375   -6.0085   24.5887 N   0  0  0  0  0  0  0  0  0  0  0  0
    5.6239   -5.2028   29.3007 C   0  0  0  0  0  0  0  0  0  0  0  0
    6.0646   -5.7177   30.2886 O   0  0  0  0  0  0  0  0  0  0  0  0
    5.1309   -3.8370   29.3813 C   0  0  0  0  0  0  0  0  0  0  0  0
    4.6991   -3.2584   30.5681 C   0  0  0  0  0  0  0  0  0  0  0  0
    3.5707   -2.4600   30.2557 C   0  0  0  0  0  0  0  0  0  0  0  0
    2.5596   -1.8638   31.0271 C   0  0  0  0  0  0  0  0  0  0  0  0
    1.5294   -1.1687   30.3848 C   0  0  0  0  0  0  0  0  0  0  0  0
    1.5098   -1.0420   28.9977 C   0  0  0  0  0  0  0  0  0  0  0  0
    0.2390   -0.0752   28.2026 S   0  0  0  0  0  0  0  0  0  0  0  0
   -1.1513   -1.2248   28.3778 C   0  0  0  0  0  0  0  0  0  0  0  0
    2.5152   -1.6265   28.2162 C   0  0  0  0  0  0  0  0  0  0  0  0
    3.5155   -2.3543   28.8697 C   0  0  0  0  0  0  0  0  0  0  0  0
    4.5686   -3.0907   28.3669 N   0  0  0  0  0  0  0  0  0  0  0  0
    3.0954   -6.2330   28.8899 H   0  0  0  0  0  0  0  0  0  0  0  0
    2.6548   -5.4421   27.3229 H   0  0  0  0  0  0  0  0  0  0  0  0
    1.5189   -6.4922   28.1914 H   0  0  0  0  0  0  0  0  0  0  0  0
    4.1480   -6.4962   25.8600 H   0  0  0  0  0  0  0  0  0  0  0  0
    4.4484   -8.2234   25.9450 H   0  0  0  0  0  0  0  0  0  0  0  0
    5.2054   -7.6607   28.4171 H   0  0  0  0  0  0  0  0  0  0  0  0
    6.4457   -7.6611   27.3698 H   0  0  0  0  0  0  0  0  0  0  0  0
    6.7079   -4.4414   26.9089 H   0  0  0  0  0  0  0  0  0  0  0  0
    7.5636   -5.7059   27.7394 H   0  0  0  0  0  0  0  0  0  0  0  0
    7.8708   -8.7744   24.1222 H   0  0  0  0  0  0  0  0  0  0  0  0
    5.7986   -7.3606   22.9683 H   0  0  0  0  0  0  0  0  0  0  0  0
    5.5550   -5.2815   24.4378 H   0  0  0  0  0  0  0  0  0  0  0  0
    4.9643   -3.6100   31.5586 H   0  0  0  0  0  0  0  0  0  0  0  0
    2.5726   -1.9405   32.1106 H   0  0  0  0  0  0  0  0  0  0  0  0
    0.7588   -0.6960   30.9897 H   0  0  0  0  0  0  0  0  0  0  0  0
   -1.4613   -1.2877   29.4245 H   0  0  0  0  0  0  0  0  0  0  0  0
   -1.9961   -0.8638   27.7856 H   0  0  0  0  0  0  0  0  0  0  0  0
   -0.8754   -2.2223   28.0281 H   0  0  0  0  0  0  0  0  0  0  0  0
    2.5201   -1.5087   27.1398 H   0  0  0  0  0  0  0  0  0  0  0  0
    4.6963   -3.2805   27.3848 H   0  0  0  0  0  0  0  0  0  0  0  0
  1  2  1  0
  2  3  1  0
  3  4  1  0
  4  5  1  0
  5  6  1  0
  6  7  1  0
  7  8  2  0
  8  9  1  0
  9 10  2  0
 10 11  1  0
  5 12  1  0
 12 13  2  0
 12 14  1  0
 14 15  2  0
 15 16  1  0
 16 17  2  0
 17 18  1  0
 18 19  2  0
 19 20  1  0
 20 21  1  0
 19 22  1  0
 22 23  2  0
 23 24  1  0
 11  7  1  0
 24 14  1  0
 23 16  1  0
  1 25  1  0
  1 26  1  0
  1 27  1  0
  3 28  1  0
  3 29  1  0
  4 30  1  0
  4 31  1  0
  6 32  1  0
  6 33  1  0
  9 34  1  0
 10 35  1  0
 11 36  1  0
 15 37  1  0
 17 38  1  0
 18 39  1  0
 21 40  1  0
 21 41  1  0
 21 42  1  0
 22 43  1  0
 24 44  1  0
M  END
>  <Energy>  (1300) 
123.95606171512924

>  <compound_id>  (1300) 
47208

>  <target_id>  (1300) 
1

>  <reference_id>  (1300) 
40

>  <inspiration_ids>  (1300) 
[40, 80]

>  <energy_score>  (1300) 
79.27057929589324

>  <distance_score>  (1300) 
8.263352037802694

>  <path>  (1300) 
/opt/xchem-fragalysis-2/maxwin/BulkDock/SCRATCH/511023/C47208-P40/C47208-P40.minimised.mol

>  <scratch_subdir>  (1300) 
/opt/xchem-fragalysis-2/maxwin/BulkDock/SCRATCH/511023/C47208-P40

>  <fragmenstein_runtime>  (1300) 
14.36491584777832

>  <fragmenstein_outcome>  (1300) 
too moved

>  <fragmenstein_mode>  (1300) 
expansion

>  <fragmenstein_error>  (1300) 


$$$$
C47208-P80
     RDKit          3D

 44 46  0  0  0  0  0  0  0  0999 V2000
   10.4636   -0.9763   27.6189 C   0  0  0  0  0  0  0  0  0  0  0  0
    9.7506   -2.0199   26.9708 O   0  0  0  0  0  0  0  0  0  0  0  0
    9.1179   -1.5526   25.7455 C   0  0  0  0  0  0  0  0  0  0  0  0
    8.3972   -2.8362   24.9874 C   0  0  0  0  0  0  0  0  0  0  0  0
    6.8366   -3.3848   24.2599 N   0  0  0  0  0  0  0  0  0  0  0  0
    8.0659   -3.5434   22.3864 C   0  0  0  0  0  0  0  0  0  0  0  0
   10.4504   -3.0938   22.1306 C   0  0  0  0  0  0  0  0  0  0  0  0
   11.2966   -2.9084   23.3553 N   0  0  0  0  0  0  0  0  0  0  0  0
   12.5969   -3.3612   23.2213 C   0  0  0  0  0  0  0  0  0  0  0  0
   12.8161   -3.9221   22.0047 C   0  0  0  0  0  0  0  0  0  0  0  0
   11.6404   -3.8445   21.3218 N   0  0  0  0  0  0  0  0  0  0  0  0
    5.3066   -2.2241   24.2741 C   0  0  0  0  0  0  0  0  0  0  0  0
    5.2162   -1.1236   24.5776 O   0  0  0  0  0  0  0  0  0  0  0  0
    3.9337   -2.7439   24.0323 C   0  0  0  0  0  0  0  0  0  0  0  0
    3.8150   -3.6244   25.0630 C   0  0  0  0  0  0  0  0  0  0  0  0
    2.5439   -4.2497   25.1120 C   0  0  0  0  0  0  0  0  0  0  0  0
    1.6002   -5.7023   24.2058 C   0  0  0  0  0  0  0  0  0  0  0  0
    0.2448   -6.1403   25.2812 C   0  0  0  0  0  0  0  0  0  0  0  0
    0.3346   -5.4631   26.7860 C   0  0  0  0  0  0  0  0  0  0  0  0
   -0.7075   -6.2901   28.0058 S   0  0  0  0  0  0  0  0  0  0  0  0
   -0.0786   -5.6356   29.5862 C   0  0  0  0  0  0  0  0  0  0  0  0
    1.2582   -4.1214   27.2584 C   0  0  0  0  0  0  0  0  0  0  0  0
    2.3481   -3.5297   26.3281 C   0  0  0  0  0  0  0  0  0  0  0  0
    3.0261   -2.2104   25.4929 N   0  0  0  0  0  0  0  0  0  0  0  0
   11.2751   -0.6126   26.9812 H   0  0  0  0  0  0  0  0  0  0  0  0
   10.8977   -1.3762   28.5391 H   0  0  0  0  0  0  0  0  0  0  0  0
    9.7902   -0.1540   27.8790 H   0  0  0  0  0  0  0  0  0  0  0  0
    9.9179   -1.0957   25.1668 H   0  0  0  0  0  0  0  0  0  0  0  0
    8.4048   -0.7908   26.0730 H   0  0  0  0  0  0  0  0  0  0  0  0
    8.5253   -3.5318   25.8850 H   0  0  0  0  0  0  0  0  0  0  0  0
    7.5961   -2.4078   25.6556 H   0  0  0  0  0  0  0  0  0  0  0  0
    7.8463   -4.6818   22.5226 H   0  0  0  0  0  0  0  0  0  0  0  0
    7.7162   -3.5306   21.3482 H   0  0  0  0  0  0  0  0  0  0  0  0
   13.2978   -3.2397   24.0354 H   0  0  0  0  0  0  0  0  0  0  0  0
   13.6930   -4.3717   21.5656 H   0  0  0  0  0  0  0  0  0  0  0  0
   11.4535   -4.2713   20.4286 H   0  0  0  0  0  0  0  0  0  0  0  0
    4.3721   -3.3688   25.9900 H   0  0  0  0  0  0  0  0  0  0  0  0
    1.2518   -5.4368   23.1811 H   0  0  0  0  0  0  0  0  0  0  0  0
   -0.4481   -6.9153   24.9817 H   0  0  0  0  0  0  0  0  0  0  0  0
    1.0041   -5.7086   29.6808 H   0  0  0  0  0  0  0  0  0  0  0  0
   -0.3785   -4.5916   29.7098 H   0  0  0  0  0  0  0  0  0  0  0  0
   -0.5206   -6.2155   30.4019 H   0  0  0  0  0  0  0  0  0  0  0  0
    1.0024   -3.5830   28.1655 H   0  0  0  0  0  0  0  0  0  0  0  0
    2.4150   -1.4541   25.2865 H   0  0  0  0  0  0  0  0  0  0  0  0
  1  2  1  0
  2  3  1  0
  3  4  1  0
  4  5  1  0
  5  6  1  0
  6  7  1  0
  7  8  2  0
  8  9  1  0
  9 10  2  0
 10 11  1  0
  5 12  1  0
 12 13  2  0
 12 14  1  0
 14 15  2  0
 15 16  1  0
 16 17  2  0
 17 18  1  0
 18 19  2  0
 19 20  1  0
 20 21  1  0
 19 22  1  0
 22 23  2  0
 23 24  1  0
 11  7  1  0
 24 14  1  0
 23 16  1  0
  1 25  1  0
  1 26  1  0
  1 27  1  0
  3 28  1  0
  3 29  1  0
  4 30  1  0
  4 31  1  0
  6 32  1  0
  6 33  1  0
  9 34  1  0
 10 35  1  0
 11 36  1  0
 15 37  1  0
 17 38  1  0
 18 39  1  0
 21 40  1  0
 21 41  1  0
 21 42  1  0
 22 43  1  0
 24 44  1  0
M  END
>  <Energy>  (1301) 
1397.2480345853357

>  <compound_id>  (1301) 
47208

>  <target_id>  (1301) 
1

>  <reference_id>  (1301) 
80

>  <inspiration_ids>  (1301) 
[40, 80]

>  <energy_score>  (1301) 
1352.5625521661104

>  <distance_score>  (1301) 
7.194810333941808

>  <path>  (1301) 
/opt/xchem-fragalysis-2/maxwin/BulkDock/SCRATCH/511023/C47208-P80/C47208-P80.minimised.mol

>  <scratch_subdir>  (1301) 
/opt/xchem-fragalysis-2/maxwin/BulkDock/SCRATCH/511023/C47208-P80

>  <fragmenstein_runtime>  (1301) 
12.31069827079773

>  <fragmenstein_outcome>  (1301) 
too moved

>  <fragmenstein_mode>  (1301) 
expansion

>  <fragmenstein_error>  (1301) 


$$$$
C47209-P40
     RDKit          3D

 43 45  0  0  0  0  0  0  0  0999 V2000
    8.0679   -5.0724   31.5031 C   0  0  0  0  0  0  0  0  0  0  0  0
    8.3840   -4.8563   30.1354 O   0  0  0  0  0  0  0  0  0  0  0  0
    9.4893   -3.9630   29.9846 C   0  0  0  0  0  0  0  0  0  0  0  0
    9.6417   -3.5779   28.5062 C   0  0  0  0  0  0  0  0  0  0  0  0
    8.7226   -2.5488   28.0122 N   0  0  0  0  0  0  0  0  0  0  0  0
    8.9709   -1.8158   26.7682 C   0  0  0  0  0  0  0  0  0  0  0  0
   10.2234   -2.1559   26.0020 C   0  0  0  0  0  0  0  0  0  0  0  0
   11.2503   -1.3615   25.7587 N   0  0  0  0  0  0  0  0  0  0  0  0
   12.0878   -2.0602   24.9238 C   0  0  0  0  0  0  0  0  0  0  0  0
   11.5821   -3.3088   24.6647 C   0  0  0  0  0  0  0  0  0  0  0  0
   10.4097   -3.3607   25.3651 N   0  0  0  0  0  0  0  0  0  0  0  0
    7.5620   -2.2157   28.7080 C   0  0  0  0  0  0  0  0  0  0  0  0
    7.6224   -1.3210   29.5537 O   0  0  0  0  0  0  0  0  0  0  0  0
    6.3319   -2.9700   28.4550 C   0  0  0  0  0  0  0  0  0  0  0  0
    6.1320   -4.1976   27.8376 C   0  0  0  0  0  0  0  0  0  0  0  0
    4.7740   -4.5947   28.0095 C   0  0  0  0  0  0  0  0  0  0  0  0
    4.0436   -5.7527   27.6730 C   0  0  0  0  0  0  0  0  0  0  0  0
    2.6943   -5.8427   28.0313 C   0  0  0  0  0  0  0  0  0  0  0  0
    2.0618   -4.7979   28.6970 C   0  0  0  0  0  0  0  0  0  0  0  0
    2.7641   -3.6365   29.0269 C   0  0  0  0  0  0  0  0  0  0  0  0
    4.1255   -3.5592   28.6792 C   0  0  0  0  0  0  0  0  0  0  0  0
    5.0688   -2.5664   28.8815 N   0  0  0  0  0  0  0  0  0  0  0  0
    4.7843   -1.2775   29.4833 C   0  0  0  0  0  0  0  0  0  0  0  0
    7.7524   -4.1365   31.9743 H   0  0  0  0  0  0  0  0  0  0  0  0
    7.2402   -5.7847   31.5569 H   0  0  0  0  0  0  0  0  0  0  0  0
    8.9274   -5.4921   32.0344 H   0  0  0  0  0  0  0  0  0  0  0  0
    9.3652   -3.0752   30.6147 H   0  0  0  0  0  0  0  0  0  0  0  0
   10.3918   -4.4940   30.3087 H   0  0  0  0  0  0  0  0  0  0  0  0
   10.6572   -3.1869   28.3817 H   0  0  0  0  0  0  0  0  0  0  0  0
    9.5145   -4.4604   27.8704 H   0  0  0  0  0  0  0  0  0  0  0  0
    9.0205   -0.7536   27.0426 H   0  0  0  0  0  0  0  0  0  0  0  0
    8.0828   -1.9079   26.1389 H   0  0  0  0  0  0  0  0  0  0  0  0
   12.9965   -1.6147   24.5405 H   0  0  0  0  0  0  0  0  0  0  0  0
   11.9356   -4.1216   24.0488 H   0  0  0  0  0  0  0  0  0  0  0  0
    9.7243   -4.1039   25.3557 H   0  0  0  0  0  0  0  0  0  0  0  0
    6.9109   -4.7920   27.3790 H   0  0  0  0  0  0  0  0  0  0  0  0
    4.5329   -6.5697   27.1492 H   0  0  0  0  0  0  0  0  0  0  0  0
    2.1438   -6.7418   27.7877 H   0  0  0  0  0  0  0  0  0  0  0  0
    1.0099   -4.8721   28.9606 H   0  0  0  0  0  0  0  0  0  0  0  0
    2.2624   -2.8244   29.5438 H   0  0  0  0  0  0  0  0  0  0  0  0
    5.1244   -1.3015   30.5213 H   0  0  0  0  0  0  0  0  0  0  0  0
    3.7122   -1.0749   29.4464 H   0  0  0  0  0  0  0  0  0  0  0  0
    5.2964   -0.4984   28.9130 H   0  0  0  0  0  0  0  0  0  0  0  0
  1  2  1  0
  2  3  1  0
  3  4  1  0
  4  5  1  0
  5  6  1  0
  6  7  1  0
  7  8  2  0
  8  9  1  0
  9 10  2  0
 10 11  1  0
  5 12  1  0
 12 13  2  0
 12 14  1  0
 14 15  2  0
 15 16  1  0
 16 17  2  0
 17 18  1  0
 18 19  2  0
 19 20  1  0
 20 21  2  0
 21 22  1  0
 22 23  1  0
 11  7  1  0
 22 14  1  0
 21 16  1  0
  1 24  1  0
  1 25  1  0
  1 26  1  0
  3 27  1  0
  3 28  1  0
  4 29  1  0
  4 30  1  0
  6 31  1  0
  6 32  1  0
  9 33  1  0
 10 34  1  0
 11 35  1  0
 15 36  1  0
 17 37  1  0
 18 38  1  0
 19 39  1  0
 20 40  1  0
 23 41  1  0
 23 42  1  0
 23 43  1  0
M  END
>  <Energy>  (1302) 
37.065819268456309

>  <compound_id>  (1302) 
47209

>  <target_id>  (1302) 
1

>  <reference_id>  (1302) 
40

>  <inspiration_ids>  (1302) 
[40, 80]

>  <energy_score>  (1302) 
-11.572501087522767

>  <distance_score>  (1302) 
7.8409602223314785

>  <path>  (1302) 
/opt/xchem-fragalysis-2/maxwin/BulkDock/SCRATCH/511023/C47209-P40/C47209-P40.minimised.mol

>  <scratch_subdir>  (1302) 
/opt/xchem-fragalysis-2/maxwin/BulkDock/SCRATCH/511023/C47209-P40

>  <fragmenstein_runtime>  (1302) 
22.507625818252563

>  <fragmenstein_outcome>  (1302) 
too moved

>  <fragmenstein_mode>  (1302) 
expansion

>  <fragmenstein_error>  (1302) 


$$$$
C47209-P80
     RDKit          3D

 43 45  0  0  0  0  0  0  0  0999 V2000
    1.7717    5.4884   30.4972 C   0  0  0  0  0  0  0  0  0  0  0  0
    2.4098    4.2188   30.4545 O   0  0  0  0  0  0  0  0  0  0  0  0
    2.0554    3.4950   29.2748 C   0  0  0  0  0  0  0  0  0  0  0  0
    2.7276    2.1208   29.3127 C   0  0  0  0  0  0  0  0  0  0  0  0
    2.4738    1.3558   28.1004 N   0  0  0  0  0  0  0  0  0  0  0  0
    3.3445    1.5297   26.9437 C   0  0  0  0  0  0  0  0  0  0  0  0
    4.2100    0.3592   26.6535 C   0  0  0  0  0  0  0  0  0  0  0  0
    5.2958   -0.0164   27.3036 N   0  0  0  0  0  0  0  0  0  0  0  0
    5.6749   -1.1938   26.7171 C   0  0  0  0  0  0  0  0  0  0  0  0
    4.8735   -1.4735   25.6389 C   0  0  0  0  0  0  0  0  0  0  0  0
    3.9845   -0.4564   25.5764 N   0  0  0  0  0  0  0  0  0  0  0  0
    1.4105    0.4764   28.0578 C   0  0  0  0  0  0  0  0  0  0  0  0
    0.3323    0.9380   27.6672 O   0  0  0  0  0  0  0  0  0  0  0  0
    1.5180   -0.8947   28.5531 C   0  0  0  0  0  0  0  0  0  0  0  0
    0.5278   -1.8488   28.3239 C   0  0  0  0  0  0  0  0  0  0  0  0
    0.8088   -3.0309   29.0370 C   0  0  0  0  0  0  0  0  0  0  0  0
    0.1382   -4.2567   29.1929 C   0  0  0  0  0  0  0  0  0  0  0  0
    0.6184   -5.1821   30.1199 C   0  0  0  0  0  0  0  0  0  0  0  0
    1.7640   -4.9067   30.8596 C   0  0  0  0  0  0  0  0  0  0  0  0
    2.4848   -3.7262   30.6617 C   0  0  0  0  0  0  0  0  0  0  0  0
    1.9818   -2.7931   29.7398 C   0  0  0  0  0  0  0  0  0  0  0  0
    2.4482   -1.5354   29.3588 N   0  0  0  0  0  0  0  0  0  0  0  0
    3.6833   -1.0174   29.9028 C   0  0  0  0  0  0  0  0  0  0  0  0
    2.0850    6.0007   31.4108 H   0  0  0  0  0  0  0  0  0  0  0  0
    0.6841    5.3698   30.5185 H   0  0  0  0  0  0  0  0  0  0  0  0
    2.0683    6.0957   29.6363 H   0  0  0  0  0  0  0  0  0  0  0  0
    2.3872    4.0551   28.3928 H   0  0  0  0  0  0  0  0  0  0  0  0
    0.9661    3.3796   29.2230 H   0  0  0  0  0  0  0  0  0  0  0  0
    3.8085    2.2203   29.4651 H   0  0  0  0  0  0  0  0  0  0  0  0
    2.3328    1.5729   30.1770 H   0  0  0  0  0  0  0  0  0  0  0  0
    2.6984    1.7411   26.0835 H   0  0  0  0  0  0  0  0  0  0  0  0
    3.9678    2.4181   27.0963 H   0  0  0  0  0  0  0  0  0  0  0  0
    6.5249   -1.7580   27.0764 H   0  0  0  0  0  0  0  0  0  0  0  0
    4.8627   -2.2543   24.8998 H   0  0  0  0  0  0  0  0  0  0  0  0
    3.3213   -0.3282   24.8220 H   0  0  0  0  0  0  0  0  0  0  0  0
   -0.3603   -1.6654   27.7342 H   0  0  0  0  0  0  0  0  0  0  0  0
   -0.7621   -4.4544   28.6231 H   0  0  0  0  0  0  0  0  0  0  0  0
    0.0963   -6.1230   30.2736 H   0  0  0  0  0  0  0  0  0  0  0  0
    2.1052   -5.6269   31.5998 H   0  0  0  0  0  0  0  0  0  0  0  0
    3.3843   -3.5305   31.2356 H   0  0  0  0  0  0  0  0  0  0  0  0
    3.9998   -0.1182   29.3969 H   0  0  0  0  0  0  0  0  0  0  0  0
    4.4637   -1.7742   29.7817 H   0  0  0  0  0  0  0  0  0  0  0  0
    3.5246   -0.8019   30.9631 H   0  0  0  0  0  0  0  0  0  0  0  0
  1  2  1  0
  2  3  1  0
  3  4  1  0
  4  5  1  0
  5  6  1  0
  6  7  1  0
  7  8  2  0
  8  9  1  0
  9 10  2  0
 10 11  1  0
  5 12  1  0
 12 13  2  0
 12 14  1  0
 14 15  2  0
 15 16  1  0
 16 17  2  0
 17 18  1  0
 18 19  2  0
 19 20  1  0
 20 21  2  0
 21 22  1  0
 22 23  1  0
 11  7  1  0
 22 14  1  0
 21 16  1  0
  1 24  1  0
  1 25  1  0
  1 26  1  0
  3 27  1  0
  3 28  1  0
  4 29  1  0
  4 30  1  0
  6 31  1  0
  6 32  1  0
  9 33  1  0
 10 34  1  0
 11 35  1  0
 15 36  1  0
 17 37  1  0
 18 38  1  0
 19 39  1  0
 20 40  1  0
 23 41  1  0
 23 42  1  0
 23 43  1  0
M  END
>  <Energy>  (1303) 
38.862210680851796

>  <compound_id>  (1303) 
47209

>  <target_id>  (1303) 
1

>  <reference_id>  (1303) 
80

>  <inspiration_ids>  (1303) 
[40, 80]

>  <energy_score>  (1303) 
-9.776109675127486

>  <distance_score>  (1303) 
8.82619553173587

>  <path>  (1303) 
/opt/xchem-fragalysis-2/maxwin/BulkDock/SCRATCH/511023/C47209-P80/C47209-P80.minimised.mol

>  <scratch_subdir>  (1303) 
/opt/xchem-fragalysis-2/maxwin/BulkDock/SCRATCH/511023/C47209-P80

>  <fragmenstein_runtime>  (1303) 
26.026923418045044

>  <fragmenstein_outcome>  (1303) 
too moved

>  <fragmenstein_mode>  (1303) 
expansion

>  <fragmenstein_error>  (1303) 


$$$$
C47210-P40
     RDKit          3D

 43 45  0  0  0  0  0  0  0  0999 V2000
    6.7681   -5.9271   22.6526 C   0  0  0  0  0  0  0  0  0  0  0  0
    7.5663   -4.4785   21.5147 C   0  0  0  0  0  0  0  0  0  0  0  0
    6.4493   -3.2664   22.6365 C   0  0  0  0  0  0  0  0  0  0  0  0
    5.7272   -2.6224   24.2521 C   0  0  0  0  0  0  0  0  0  0  0  0
    5.0484   -3.4664   25.2249 N   0  0  0  0  0  0  0  0  0  0  0  0
    4.3964   -3.1397   26.4579 C   0  0  0  0  0  0  0  0  0  0  0  0
    4.3098   -2.0996   27.0450 O   0  0  0  0  0  0  0  0  0  0  0  0
    3.6476   -4.2649   27.1041 C   0  0  0  0  0  0  0  0  0  0  0  0
    3.9772   -5.6138   26.9571 C   0  0  0  0  0  0  0  0  0  0  0  0
    3.2054   -6.6076   27.5516 C   0  0  0  0  0  0  0  0  0  0  0  0
    2.0993   -6.2991   28.3479 C   0  0  0  0  0  0  0  0  0  0  0  0
    1.7573   -4.9563   28.5411 C   0  0  0  0  0  0  0  0  0  0  0  0
    0.7181   -4.3013   29.2503 C   0  0  0  0  0  0  0  0  0  0  0  0
    0.8693   -2.9506   29.0486 C   0  0  0  0  0  0  0  0  0  0  0  0
    1.9760   -2.7620   28.2682 N   0  0  0  0  0  0  0  0  0  0  0  0
    2.5315   -3.9782   27.9231 C   0  0  0  0  0  0  0  0  0  0  0  0
    9.4672   -4.6030   20.7943 N   0  0  0  0  0  0  0  0  0  0  0  0
   11.0375   -4.3091   21.5934 C   0  0  0  0  0  0  0  0  0  0  0  0
   11.2377   -3.8871   22.7322 O   0  0  0  0  0  0  0  0  0  0  0  0
   12.3284   -4.4491   20.8692 C   0  0  0  0  0  0  0  0  0  0  0  0
   12.6248   -5.0270   19.7314 N   0  0  0  0  0  0  0  0  0  0  0  0
   13.8821   -4.5979   19.3855 C   0  0  0  0  0  0  0  0  0  0  0  0
   14.4003   -3.7808   20.3537 C   0  0  0  0  0  0  0  0  0  0  0  0
   13.4311   -3.7359   21.3099 N   0  0  0  0  0  0  0  0  0  0  0  0
    7.2169   -6.4450   23.5110 H   0  0  0  0  0  0  0  0  0  0  0  0
    5.9147   -5.7328   23.3106 H   0  0  0  0  0  0  0  0  0  0  0  0
    6.4733   -6.7376   22.0022 H   0  0  0  0  0  0  0  0  0  0  0  0
    7.2200   -4.4323   20.4350 H   0  0  0  0  0  0  0  0  0  0  0  0
    5.6742   -2.8876   21.9378 H   0  0  0  0  0  0  0  0  0  0  0  0
    6.2983   -4.1153   23.2648 H   0  0  0  0  0  0  0  0  0  0  0  0
    4.9709   -1.8799   23.9446 H   0  0  0  0  0  0  0  0  0  0  0  0
    6.3947   -2.0601   24.9167 H   0  0  0  0  0  0  0  0  0  0  0  0
    4.9866   -4.4614   25.0738 H   0  0  0  0  0  0  0  0  0  0  0  0
    4.8516   -5.9235   26.3890 H   0  0  0  0  0  0  0  0  0  0  0  0
    3.4840   -7.6370   27.3650 H   0  0  0  0  0  0  0  0  0  0  0  0
    1.4913   -7.0719   28.7997 H   0  0  0  0  0  0  0  0  0  0  0  0
   -0.0671   -4.7583   29.8360 H   0  0  0  0  0  0  0  0  0  0  0  0
    0.2900   -2.1039   29.3932 H   0  0  0  0  0  0  0  0  0  0  0  0
    2.3583   -1.8708   27.9651 H   0  0  0  0  0  0  0  0  0  0  0  0
    9.6217   -5.0274   19.8918 H   0  0  0  0  0  0  0  0  0  0  0  0
   14.3440   -4.8996   18.4572 H   0  0  0  0  0  0  0  0  0  0  0  0
   15.3393   -3.2562   20.4477 H   0  0  0  0  0  0  0  0  0  0  0  0
   13.4221   -3.1893   22.1624 H   0  0  0  0  0  0  0  0  0  0  0  0
  1  2  1  0
  2  3  1  0
  3  4  1  0
  4  5  1  0
  5  6  1  0
  6  7  2  0
  6  8  1  0
  8  9  2  0
  9 10  1  0
 10 11  2  0
 11 12  1  0
 12 13  1  0
 13 14  2  0
 14 15  1  0
 15 16  1  0
  2 17  1  0
 17 18  1  0
 18 19  2  0
 18 20  1  0
 20 21  2  0
 21 22  1  0
 22 23  2  0
 23 24  1  0
 16  8  1  0
 24 20  1  0
 16 12  2  0
  1 25  1  0
  1 26  1  0
  1 27  1  0
  2 28  1  0
  3 29  1  0
  3 30  1  0
  4 31  1  0
  4 32  1  0
  5 33  1  0
  9 34  1  0
 10 35  1  0
 11 36  1  0
 13 37  1  0
 14 38  1  0
 15 39  1  0
 17 40  1  0
 22 41  1  0
 23 42  1  0
 24 43  1  0
M  END
>  <Energy>  (1304) 
427.4735240553847

>  <compound_id>  (1304) 
47210

>  <target_id>  (1304) 
1

>  <reference_id>  (1304) 
40

>  <inspiration_ids>  (1304) 
[40, 80]

>  <energy_score>  (1304) 
375.1030165416074

>  <distance_score>  (1304) 
5.738964345473905

>  <path>  (1304) 
/opt/xchem-fragalysis-2/maxwin/BulkDock/SCRATCH/511023/C47210-P40/C47210-P40.minimised.mol

>  <scratch_subdir>  (1304) 
/opt/xchem-fragalysis-2/maxwin/BulkDock/SCRATCH/511023/C47210-P40

>  <fragmenstein_runtime>  (1304) 
13.40060567855835

>  <fragmenstein_outcome>  (1304) 
too moved

>  <fragmenstein_mode>  (1304) 
expansion

>  <fragmenstein_error>  (1304) 


$$$$
C47210-P80
     RDKit          3D

 43 45  0  0  0  0  0  0  0  0999 V2000
    7.1571   -5.4533   23.1447 C   0  0  0  0  0  0  0  0  0  0  0  0
    6.9031   -3.7564   22.9362 C   0  0  0  0  0  0  0  0  0  0  0  0
    5.6579   -2.4474   23.9862 C   0  0  0  0  0  0  0  0  0  0  0  0
    4.1771   -2.3217   24.5972 C   0  0  0  0  0  0  0  0  0  0  0  0
    3.8701   -2.5082   26.0005 N   0  0  0  0  0  0  0  0  0  0  0  0
    4.2853   -1.7746   27.1618 C   0  0  0  0  0  0  0  0  0  0  0  0
    5.0104   -0.8286   27.2719 O   0  0  0  0  0  0  0  0  0  0  0  0
    3.7837   -2.3850   28.4388 C   0  0  0  0  0  0  0  0  0  0  0  0
    4.7107   -2.6199   29.4693 C   0  0  0  0  0  0  0  0  0  0  0  0
    4.3640   -3.3279   30.6194 C   0  0  0  0  0  0  0  0  0  0  0  0
    3.0723   -3.8318   30.7806 C   0  0  0  0  0  0  0  0  0  0  0  0
    2.1069   -3.5738   29.7917 C   0  0  0  0  0  0  0  0  0  0  0  0
    0.7341   -3.9101   29.6673 C   0  0  0  0  0  0  0  0  0  0  0  0
    0.2741   -3.3260   28.5141 C   0  0  0  0  0  0  0  0  0  0  0  0
    1.3232   -2.6833   27.9102 N   0  0  0  0  0  0  0  0  0  0  0  0
    2.4692   -2.8410   28.6548 C   0  0  0  0  0  0  0  0  0  0  0  0
    7.5839   -3.0557   21.1419 N   0  0  0  0  0  0  0  0  0  0  0  0
    7.3479   -1.2393   20.2480 C   0  0  0  0  0  0  0  0  0  0  0  0
    6.8107   -0.4251   20.8752 O   0  0  0  0  0  0  0  0  0  0  0  0
    7.7642   -0.5081   18.5275 C   0  0  0  0  0  0  0  0  0  0  0  0
    8.8991   -0.0326   17.8587 N   0  0  0  0  0  0  0  0  0  0  0  0
    8.9989    0.1014   16.4673 C   0  0  0  0  0  0  0  0  0  0  0  0
    8.0107   -0.6303   15.9347 C   0  0  0  0  0  0  0  0  0  0  0  0
    7.0704   -0.5808   16.9306 N   0  0  0  0  0  0  0  0  0  0  0  0
    6.3692   -5.9997   23.6751 H   0  0  0  0  0  0  0  0  0  0  0  0
    7.1901   -6.0239   22.2463 H   0  0  0  0  0  0  0  0  0  0  0  0
    8.1049   -5.7112   23.5449 H   0  0  0  0  0  0  0  0  0  0  0  0
    7.5311   -3.7051   23.7839 H   0  0  0  0  0  0  0  0  0  0  0  0
    5.4050   -1.7871   23.1589 H   0  0  0  0  0  0  0  0  0  0  0  0
    6.1335   -2.0249   24.8909 H   0  0  0  0  0  0  0  0  0  0  0  0
    4.0136   -1.2484   24.5742 H   0  0  0  0  0  0  0  0  0  0  0  0
    3.4134   -2.7856   23.9817 H   0  0  0  0  0  0  0  0  0  0  0  0
    3.1917   -3.1909   26.2713 H   0  0  0  0  0  0  0  0  0  0  0  0
    5.7343   -2.2668   29.3437 H   0  0  0  0  0  0  0  0  0  0  0  0
    5.1099   -3.4953   31.3924 H   0  0  0  0  0  0  0  0  0  0  0  0
    2.8075   -4.3894   31.6755 H   0  0  0  0  0  0  0  0  0  0  0  0
    0.1425   -4.4760   30.3747 H   0  0  0  0  0  0  0  0  0  0  0  0
   -0.7170   -3.2855   28.0867 H   0  0  0  0  0  0  0  0  0  0  0  0
    1.2723   -2.1540   27.0454 H   0  0  0  0  0  0  0  0  0  0  0  0
    7.9987   -3.7392   20.4489 H   0  0  0  0  0  0  0  0  0  0  0  0
    9.8799    0.5229   16.0000 H   0  0  0  0  0  0  0  0  0  0  0  0
    7.7952   -0.9753   14.9314 H   0  0  0  0  0  0  0  0  0  0  0  0
    6.1077   -0.8585   16.9078 H   0  0  0  0  0  0  0  0  0  0  0  0
  1  2  1  0
  2  3  1  0
  3  4  1  0
  4  5  1  0
  5  6  1  0
  6  7  2  0
  6  8  1  0
  8  9  2  0
  9 10  1  0
 10 11  2  0
 11 12  1  0
 12 13  1  0
 13 14  2  0
 14 15  1  0
 15 16  1  0
  2 17  1  0
 17 18  1  0
 18 19  2  0
 18 20  1  0
 20 21  2  0
 21 22  1  0
 22 23  2  0
 23 24  1  0
 16  8  1  0
 24 20  1  0
 16 12  2  0
  1 25  1  0
  1 26  1  0
  1 27  1  0
  2 28  1  0
  3 29  1  0
  3 30  1  0
  4 31  1  0
  4 32  1  0
  5 33  1  0
  9 34  1  0
 10 35  1  0
 11 36  1  0
 13 37  1  0
 14 38  1  0
 15 39  1  0
 17 40  1  0
 22 41  1  0
 23 42  1  0
 24 43  1  0
M  END
>  <Energy>  (1305) 
584.88884190127453

>  <compound_id>  (1305) 
47210

>  <target_id>  (1305) 
1

>  <reference_id>  (1305) 
80

>  <inspiration_ids>  (1305) 
[40, 80]

>  <energy_score>  (1305) 
532.5183343874941

>  <distance_score>  (1305) 
5.596788458634015

>  <path>  (1305) 
/opt/xchem-fragalysis-2/maxwin/BulkDock/SCRATCH/511023/C47210-P80/C47210-P80.minimised.mol

>  <scratch_subdir>  (1305) 
/opt/xchem-fragalysis-2/maxwin/BulkDock/SCRATCH/511023/C47210-P80

>  <fragmenstein_runtime>  (1305) 
10.812954425811768

>  <fragmenstein_outcome>  (1305) 
too moved

>  <fragmenstein_mode>  (1305) 
expansion

>  <fragmenstein_error>  (1305) 


$$$$
C47211-P40
     RDKit          3D

 50 53  0  0  0  0  0  0  0  0999 V2000
    6.3811   -5.9008   24.8805 C   0  0  0  0  0  0  0  0  0  0  0  0
    5.8819   -4.7679   23.6753 C   0  0  0  0  0  0  0  0  0  0  0  0
    5.5603   -3.6993   24.9400 C   0  0  0  0  0  0  0  0  0  0  0  0
    4.1858   -3.5337   25.5438 C   0  0  0  0  0  0  0  0  0  0  0  0
    3.6111   -4.2910   26.6100 N   0  0  0  0  0  0  0  0  0  0  0  0
    3.6646   -4.1066   28.0235 C   0  0  0  0  0  0  0  0  0  0  0  0
    4.2718   -3.3180   28.6863 O   0  0  0  0  0  0  0  0  0  0  0  0
    2.7130   -4.9991   28.7712 C   0  0  0  0  0  0  0  0  0  0  0  0
    2.2805   -6.2590   28.3456 C   0  0  0  0  0  0  0  0  0  0  0  0
    1.1768   -6.8773   28.9465 C   0  0  0  0  0  0  0  0  0  0  0  0
    0.4961   -6.2940   30.0161 C   0  0  0  0  0  0  0  0  0  0  0  0
    0.9366   -5.0539   30.4897 C   0  0  0  0  0  0  0  0  0  0  0  0
    0.4937   -4.1874   31.5205 C   0  0  0  0  0  0  0  0  0  0  0  0
    1.2889   -3.0663   31.4907 C   0  0  0  0  0  0  0  0  0  0  0  0
    2.2000   -3.2219   30.4851 N   0  0  0  0  0  0  0  0  0  0  0  0
    2.0208   -4.4415   29.8648 C   0  0  0  0  0  0  0  0  0  0  0  0
    7.1431   -4.6352   23.0268 N   0  0  0  0  0  0  0  0  0  0  0  0
    7.6892   -4.5753   21.1949 C   0  0  0  0  0  0  0  0  0  0  0  0
    7.0177   -4.5410   20.1434 O   0  0  0  0  0  0  0  0  0  0  0  0
    9.7331   -4.8234   20.7207 C   0  0  0  0  0  0  0  0  0  0  0  0
   11.0882   -5.8257   21.2458 C   0  0  0  0  0  0  0  0  0  0  0  0
   11.2481   -4.3787   21.5195 C   0  0  0  0  0  0  0  0  0  0  0  0
   12.6442   -3.8528   20.8440 C   0  0  0  0  0  0  0  0  0  0  0  0
   13.1834   -4.1620   19.6153 C   0  0  0  0  0  0  0  0  0  0  0  0
   14.3510   -3.4596   19.5331 N   0  0  0  0  0  0  0  0  0  0  0  0
   14.4945   -2.7795   20.7056 C   0  0  0  0  0  0  0  0  0  0  0  0
   13.4856   -3.0014   21.5187 N   0  0  0  0  0  0  0  0  0  0  0  0
    7.2076   -5.5353   25.5023 H   0  0  0  0  0  0  0  0  0  0  0  0
    5.5339   -6.1654   25.5275 H   0  0  0  0  0  0  0  0  0  0  0  0
    6.7356   -6.8266   24.4062 H   0  0  0  0  0  0  0  0  0  0  0  0
    5.3705   -5.7364   23.4883 H   0  0  0  0  0  0  0  0  0  0  0  0
    6.2665   -3.7715   25.7775 H   0  0  0  0  0  0  0  0  0  0  0  0
    5.7284   -2.7062   24.4988 H   0  0  0  0  0  0  0  0  0  0  0  0
    3.4536   -3.6070   24.7662 H   0  0  0  0  0  0  0  0  0  0  0  0
    4.1535   -2.5017   25.9191 H   0  0  0  0  0  0  0  0  0  0  0  0
    2.9290   -5.0004   26.3975 H   0  0  0  0  0  0  0  0  0  0  0  0
    2.7891   -6.7585   27.5237 H   0  0  0  0  0  0  0  0  0  0  0  0
    0.8179   -7.8336   28.5845 H   0  0  0  0  0  0  0  0  0  0  0  0
   -0.3518   -6.7914   30.4775 H   0  0  0  0  0  0  0  0  0  0  0  0
   -0.3274   -4.3512   32.2064 H   0  0  0  0  0  0  0  0  0  0  0  0
    1.2825   -2.1688   32.0955 H   0  0  0  0  0  0  0  0  0  0  0  0
    2.9290   -2.5649   30.2224 H   0  0  0  0  0  0  0  0  0  0  0  0
    7.8614   -4.5608   23.6045 H   0  0  0  0  0  0  0  0  0  0  0  0
    9.7492   -5.3229   19.7466 H   0  0  0  0  0  0  0  0  0  0  0  0
   11.7702   -6.1182   22.0871 H   0  0  0  0  0  0  0  0  0  0  0  0
   10.7214   -6.8154   21.5422 H   0  0  0  0  0  0  0  0  0  0  0  0
   11.2526   -4.0110   22.5415 H   0  0  0  0  0  0  0  0  0  0  0  0
   12.8511   -4.7678   18.7950 H   0  0  0  0  0  0  0  0  0  0  0  0
   15.0017   -3.4738   18.7603 H   0  0  0  0  0  0  0  0  0  0  0  0
   15.3483   -2.1498   20.9157 H   0  0  0  0  0  0  0  0  0  0  0  0
  1  2  1  0
  2  3  1  0
  3  4  1  0
  4  5  1  0
  5  6  1  0
  6  7  2  0
  6  8  1  0
  8  9  2  0
  9 10  1  0
 10 11  2  0
 11 12  1  0
 12 13  1  0
 13 14  2  0
 14 15  1  0
 15 16  1  0
  2 17  1  0
 17 18  1  0
 18 19  2  0
 18 20  1  0
 20 21  1  0
 21 22  1  0
 22 23  1  0
 23 24  2  0
 24 25  1  0
 25 26  1  0
 26 27  2  0
 16  8  1  0
 22 20  1  0
 27 23  1  0
 16 12  2  0
  1 28  1  0
  1 29  1  0
  1 30  1  0
  2 31  1  0
  3 32  1  0
  3 33  1  0
  4 34  1  0
  4 35  1  0
  5 36  1  0
  9 37  1  0
 10 38  1  0
 11 39  1  0
 13 40  1  0
 14 41  1  0
 15 42  1  0
 17 43  1  0
 20 44  1  0
 21 45  1  0
 21 46  1  0
 22 47  1  0
 24 48  1  0
 25 49  1  0
 26 50  1  0
M  END
>  <Energy>  (1306) 
368.25498228988351

>  <compound_id>  (1306) 
47211

>  <target_id>  (1306) 
1

>  <reference_id>  (1306) 
40

>  <inspiration_ids>  (1306) 
[40, 80]

>  <energy_score>  (1306) 
340.56092377567415

>  <distance_score>  (1306) 
5.124694778868109

>  <path>  (1306) 
/opt/xchem-fragalysis-2/maxwin/BulkDock/SCRATCH/511023/C47211-P40/C47211-P40.minimised.mol

>  <scratch_subdir>  (1306) 
/opt/xchem-fragalysis-2/maxwin/BulkDock/SCRATCH/511023/C47211-P40

>  <fragmenstein_runtime>  (1306) 
17.92678689956665

>  <fragmenstein_outcome>  (1306) 
too moved

>  <fragmenstein_mode>  (1306) 
expansion

>  <fragmenstein_error>  (1306) 


$$$$
C47211-P80
     RDKit          3D

 50 53  0  0  0  0  0  0  0  0999 V2000
    8.3958   -9.5268   25.1107 C   0  0  0  0  0  0  0  0  0  0  0  0
    8.1138   -8.0261   25.4003 C   0  0  0  0  0  0  0  0  0  0  0  0
    8.9664   -7.7828   26.7205 C   0  0  0  0  0  0  0  0  0  0  0  0
    9.1917   -6.4284   27.4176 C   0  0  0  0  0  0  0  0  0  0  0  0
    8.1397   -5.9545   28.3025 N   0  0  0  0  0  0  0  0  0  0  0  0
    7.8306   -4.6291   28.7756 C   0  0  0  0  0  0  0  0  0  0  0  0
    8.3114   -3.5700   28.4996 O   0  0  0  0  0  0  0  0  0  0  0  0
    6.6913   -4.5838   29.7444 C   0  0  0  0  0  0  0  0  0  0  0  0
    6.6766   -5.3600   30.9110 C   0  0  0  0  0  0  0  0  0  0  0  0
    5.6097   -5.2851   31.8083 C   0  0  0  0  0  0  0  0  0  0  0  0
    4.4971   -4.4777   31.5445 C   0  0  0  0  0  0  0  0  0  0  0  0
    4.4917   -3.6765   30.3912 C   0  0  0  0  0  0  0  0  0  0  0  0
    3.5474   -2.7790   29.8225 C   0  0  0  0  0  0  0  0  0  0  0  0
    4.0969   -2.2714   28.6689 C   0  0  0  0  0  0  0  0  0  0  0  0
    5.3540   -2.8038   28.5272 N   0  0  0  0  0  0  0  0  0  0  0  0
    5.6025   -3.7110   29.5431 C   0  0  0  0  0  0  0  0  0  0  0  0
    8.7269   -7.1443   24.0386 N   0  0  0  0  0  0  0  0  0  0  0  0
    7.9372   -5.7641   22.9096 C   0  0  0  0  0  0  0  0  0  0  0  0
    6.8906   -5.3709   23.2261 O   0  0  0  0  0  0  0  0  0  0  0  0
    8.5090   -4.8884   21.0018 C   0  0  0  0  0  0  0  0  0  0  0  0
   10.5640   -5.2844   20.6617 C   0  0  0  0  0  0  0  0  0  0  0  0
    9.9312   -5.4569   19.5617 C   0  0  0  0  0  0  0  0  0  0  0  0
   11.9053   -4.9423   18.8553 C   0  0  0  0  0  0  0  0  0  0  0  0
   12.1978   -4.3945   17.5833 C   0  0  0  0  0  0  0  0  0  0  0  0
   13.5163   -4.0441   17.6495 N   0  0  0  0  0  0  0  0  0  0  0  0
   13.9852   -4.3978   18.8851 C   0  0  0  0  0  0  0  0  0  0  0  0
   13.0669   -4.9836   19.6238 N   0  0  0  0  0  0  0  0  0  0  0  0
    9.4355   -9.6902   24.8085 H   0  0  0  0  0  0  0  0  0  0  0  0
    8.1944  -10.1431   25.9946 H   0  0  0  0  0  0  0  0  0  0  0  0
    7.7440   -9.9098   24.3303 H   0  0  0  0  0  0  0  0  0  0  0  0
    7.0125   -8.0292   25.4847 H   0  0  0  0  0  0  0  0  0  0  0  0
    8.5819   -8.4717   27.4857 H   0  0  0  0  0  0  0  0  0  0  0  0
    9.9813   -8.1349   26.4823 H   0  0  0  0  0  0  0  0  0  0  0  0
    9.4832   -5.6359   26.7238 H   0  0  0  0  0  0  0  0  0  0  0  0
   10.0571   -6.5471   28.0828 H   0  0  0  0  0  0  0  0  0  0  0  0
    7.5859   -6.6245   28.8153 H   0  0  0  0  0  0  0  0  0  0  0  0
    7.5295   -5.9901   31.1527 H   0  0  0  0  0  0  0  0  0  0  0  0
    5.6320   -5.8693   32.7269 H   0  0  0  0  0  0  0  0  0  0  0  0
    3.6570   -4.4586   32.2343 H   0  0  0  0  0  0  0  0  0  0  0  0
    2.5673   -2.5359   30.2109 H   0  0  0  0  0  0  0  0  0  0  0  0
    3.7089   -1.5852   27.9273 H   0  0  0  0  0  0  0  0  0  0  0  0
    5.9627   -2.6718   27.7218 H   0  0  0  0  0  0  0  0  0  0  0  0
    9.6899   -7.3452   23.7078 H   0  0  0  0  0  0  0  0  0  0  0  0
    8.0610   -3.9250   20.9923 H   0  0  0  0  0  0  0  0  0  0  0  0
   11.3470   -4.5131   20.9946 H   0  0  0  0  0  0  0  0  0  0  0  0
   11.3255   -6.0968   20.5818 H   0  0  0  0  0  0  0  0  0  0  0  0
    9.6731   -6.3605   19.1752 H   0  0  0  0  0  0  0  0  0  0  0  0
   11.5916   -4.2088   16.7091 H   0  0  0  0  0  0  0  0  0  0  0  0
   14.0535   -3.5938   16.9211 H   0  0  0  0  0  0  0  0  0  0  0  0
   15.0075   -4.2109   19.1868 H   0  0  0  0  0  0  0  0  0  0  0  0
  1  2  1  0
  2  3  1  0
  3  4  1  0
  4  5  1  0
  5  6  1  0
  6  7  2  0
  6  8  1  0
  8  9  2  0
  9 10  1  0
 10 11  2  0
 11 12  1  0
 12 13  1  0
 13 14  2  0
 14 15  1  0
 15 16  1  0
  2 17  1  0
 17 18  1  0
 18 19  2  0
 18 20  1  0
 20 21  1  0
 21 22  1  0
 22 23  1  0
 23 24  2  0
 24 25  1  0
 25 26  1  0
 26 27  2  0
 16  8  1  0
 22 20  1  0
 27 23  1  0
 16 12  2  0
  1 28  1  0
  1 29  1  0
  1 30  1  0
  2 31  1  0
  3 32  1  0
  3 33  1  0
  4 34  1  0
  4 35  1  0
  5 36  1  0
  9 37  1  0
 10 38  1  0
 11 39  1  0
 13 40  1  0
 14 41  1  0
 15 42  1  0
 17 43  1  0
 20 44  1  0
 21 45  1  0
 21 46  1  0
 22 47  1  0
 24 48  1  0
 25 49  1  0
 26 50  1  0
M  END
>  <Energy>  (1307) 
594.94122677795781

>  <compound_id>  (1307) 
47211

>  <target_id>  (1307) 
1

>  <reference_id>  (1307) 
80

>  <inspiration_ids>  (1307) 
[40, 80]

>  <energy_score>  (1307) 
567.2471682637577

>  <distance_score>  (1307) 
6.294949683357465

>  <path>  (1307) 
/opt/xchem-fragalysis-2/maxwin/BulkDock/SCRATCH/511023/C47211-P80/C47211-P80.minimised.mol

>  <scratch_subdir>  (1307) 
/opt/xchem-fragalysis-2/maxwin/BulkDock/SCRATCH/511023/C47211-P80

>  <fragmenstein_runtime>  (1307) 
20.184396743774414

>  <fragmenstein_outcome>  (1307) 
too moved

>  <fragmenstein_mode>  (1307) 
expansion

>  <fragmenstein_error>  (1307) 


$$$$
C47212-P40
     RDKit          3D

 48 51  0  0  0  0  0  0  0  0999 V2000
    4.4927    0.0434   21.3591 O   0  0  0  0  0  0  0  0  0  0  0  0
    5.3584   -0.6899   21.5645 C   0  0  0  0  0  0  0  0  0  0  0  0
    5.2408   -1.7637   23.0485 N   0  0  0  0  0  0  0  0  0  0  0  0
    4.2854   -1.8094   24.1113 C   0  0  0  0  0  0  0  0  0  0  0  0
    4.8058   -2.4093   25.4686 C   0  0  0  0  0  0  0  0  0  0  0  0
    4.1628   -3.5861   26.0595 N   0  0  0  0  0  0  0  0  0  0  0  0
    4.5675   -4.8759   25.8044 C   0  0  0  0  0  0  0  0  0  0  0  0
    3.8202   -5.7414   26.5680 C   0  0  0  0  0  0  0  0  0  0  0  0
    2.9982   -4.9610   27.4169 C   0  0  0  0  0  0  0  0  0  0  0  0
    2.0759   -5.2844   28.4359 C   0  0  0  0  0  0  0  0  0  0  0  0
    1.4291   -4.2626   29.1339 C   0  0  0  0  0  0  0  0  0  0  0  0
    1.7013   -2.9323   28.8343 C   0  0  0  0  0  0  0  0  0  0  0  0
    2.6186   -2.5849   27.8329 C   0  0  0  0  0  0  0  0  0  0  0  0
    3.2539   -3.6141   27.1154 C   0  0  0  0  0  0  0  0  0  0  0  0
    6.7769   -0.6231   20.1559 N   0  0  0  0  0  0  0  0  0  0  0  0
    8.3409    0.4547   20.0168 C   0  0  0  0  0  0  0  0  0  0  0  0
    8.6112    2.0344   19.3530 C   0  0  0  0  0  0  0  0  0  0  0  0
    8.9466    2.0145   17.9215 C   0  0  0  0  0  0  0  0  0  0  0  0
    8.0354    0.9874   17.3736 C   0  0  0  0  0  0  0  0  0  0  0  0
    8.7128    0.0289   16.4446 C   0  0  0  0  0  0  0  0  0  0  0  0
    9.9381   -0.4412   16.5169 N   0  0  0  0  0  0  0  0  0  0  0  0
   10.0646   -1.3196   15.4760 C   0  0  0  0  0  0  0  0  0  0  0  0
    8.8342   -1.5046   14.9097 C   0  0  0  0  0  0  0  0  0  0  0  0
    8.0726   -0.4789   15.3547 N   0  0  0  0  0  0  0  0  0  0  0  0
    6.8662    0.2541   18.6115 C   0  0  0  0  0  0  0  0  0  0  0  0
    6.0294   -2.4181   23.0480 H   0  0  0  0  0  0  0  0  0  0  0  0
    4.0609   -0.7745   24.3698 H   0  0  0  0  0  0  0  0  0  0  0  0
    3.4656   -2.2743   23.5911 H   0  0  0  0  0  0  0  0  0  0  0  0
    4.7393   -1.6230   26.2313 H   0  0  0  0  0  0  0  0  0  0  0  0
    5.8687   -2.6471   25.4044 H   0  0  0  0  0  0  0  0  0  0  0  0
    5.3546   -5.0790   25.0872 H   0  0  0  0  0  0  0  0  0  0  0  0
    3.9084   -6.8196   26.5435 H   0  0  0  0  0  0  0  0  0  0  0  0
    1.8773   -6.3208   28.6810 H   0  0  0  0  0  0  0  0  0  0  0  0
    0.7138   -4.5008   29.9159 H   0  0  0  0  0  0  0  0  0  0  0  0
    1.1883   -2.1411   29.3780 H   0  0  0  0  0  0  0  0  0  0  0  0
    2.8031   -1.5388   27.6063 H   0  0  0  0  0  0  0  0  0  0  0  0
    9.1798    0.4417   20.7040 H   0  0  0  0  0  0  0  0  0  0  0  0
    7.5371    1.2116   20.2277 H   0  0  0  0  0  0  0  0  0  0  0  0
    7.7458    2.7212   19.4462 H   0  0  0  0  0  0  0  0  0  0  0  0
    9.3871    2.5465   19.9407 H   0  0  0  0  0  0  0  0  0  0  0  0
    9.9755    1.7911   17.6827 H   0  0  0  0  0  0  0  0  0  0  0  0
    8.7621    3.0075   17.4898 H   0  0  0  0  0  0  0  0  0  0  0  0
    7.5579    1.6000   16.6025 H   0  0  0  0  0  0  0  0  0  0  0  0
   10.9863   -1.8481   15.2700 H   0  0  0  0  0  0  0  0  0  0  0  0
    8.4420   -2.1654   14.1662 H   0  0  0  0  0  0  0  0  0  0  0  0
    7.1689   -0.2109   14.9877 H   0  0  0  0  0  0  0  0  0  0  0  0
    6.2382   -0.3634   17.9427 H   0  0  0  0  0  0  0  0  0  0  0  0
    7.7357   -0.3355   18.5837 H   0  0  0  0  0  0  0  0  0  0  0  0
  1  2  2  0
  2  3  1  0
  3  4  1  0
  4  5  1  0
  5  6  1  0
  6  7  1  0
  7  8  2  0
  8  9  1  0
  9 10  2  0
 10 11  1  0
 11 12  2  0
 12 13  1  0
 13 14  2  0
  2 15  1  0
 15 16  1  0
 16 17  1  0
 17 18  1  0
 18 19  1  0
 19 20  1  0
 20 21  2  0
 21 22  1  0
 22 23  2  0
 23 24  1  0
 19 25  1  0
 14  6  1  0
 25 15  1  0
 14  9  1  0
 24 20  1  0
  3 26  1  0
  4 27  1  0
  4 28  1  0
  5 29  1  0
  5 30  1  0
  7 31  1  0
  8 32  1  0
 10 33  1  0
 11 34  1  0
 12 35  1  0
 13 36  1  0
 16 37  1  0
 16 38  1  0
 17 39  1  0
 17 40  1  0
 18 41  1  0
 18 42  1  0
 19 43  1  0
 22 44  1  0
 23 45  1  0
 24 46  1  0
 25 47  1  0
 25 48  1  0
M  END
>  <Energy>  (1308) 
593.75462272471805

>  <compound_id>  (1308) 
47212

>  <target_id>  (1308) 
1

>  <reference_id>  (1308) 
40

>  <inspiration_ids>  (1308) 
[40, 80]

>  <energy_score>  (1308) 
605.1961840169354

>  <distance_score>  (1308) 
3.22388661190797

>  <path>  (1308) 
/opt/xchem-fragalysis-2/maxwin/BulkDock/SCRATCH/511023/C47212-P40/C47212-P40.minimised.mol

>  <scratch_subdir>  (1308) 
/opt/xchem-fragalysis-2/maxwin/BulkDock/SCRATCH/511023/C47212-P40

>  <fragmenstein_runtime>  (1308) 
10.046260356903076

>  <fragmenstein_outcome>  (1308) 
too moved

>  <fragmenstein_mode>  (1308) 
expansion

>  <fragmenstein_error>  (1308) 


$$$$
C47212-P80
     RDKit          3D

 48 51  0  0  0  0  0  0  0  0999 V2000
    7.6456   -4.5673   22.2088 O   0  0  0  0  0  0  0  0  0  0  0  0
    7.8015   -3.4236   22.4957 C   0  0  0  0  0  0  0  0  0  0  0  0
    8.2961   -2.7017   24.4773 N   0  0  0  0  0  0  0  0  0  0  0  0
    8.4544   -3.5064   26.0624 C   0  0  0  0  0  0  0  0  0  0  0  0
    7.9505   -2.5492   27.2961 C   0  0  0  0  0  0  0  0  0  0  0  0
    6.6183   -2.5130   27.9008 N   0  0  0  0  0  0  0  0  0  0  0  0
    5.6534   -1.5906   27.5430 C   0  0  0  0  0  0  0  0  0  0  0  0
    4.5310   -1.7920   28.3092 C   0  0  0  0  0  0  0  0  0  0  0  0
    4.8233   -2.8207   29.2355 C   0  0  0  0  0  0  0  0  0  0  0  0
    4.0673   -3.4328   30.2593 C   0  0  0  0  0  0  0  0  0  0  0  0
    4.6385   -4.4495   31.0228 C   0  0  0  0  0  0  0  0  0  0  0  0
    5.9422   -4.8641   30.7655 C   0  0  0  0  0  0  0  0  0  0  0  0
    6.7089   -4.2848   29.7410 C   0  0  0  0  0  0  0  0  0  0  0  0
    6.1362   -3.2542   28.9788 C   0  0  0  0  0  0  0  0  0  0  0  0
    7.8514   -1.6242   21.2514 N   0  0  0  0  0  0  0  0  0  0  0  0
    6.8047   -0.7534   20.8591 C   0  0  0  0  0  0  0  0  0  0  0  0
    7.5342    0.7823   20.1775 C   0  0  0  0  0  0  0  0  0  0  0  0
    7.7881    1.5807   18.4504 C   0  0  0  0  0  0  0  0  0  0  0  0
    8.0371    0.0392   17.8138 C   0  0  0  0  0  0  0  0  0  0  0  0
    9.1378    0.1339   16.6655 C   0  0  0  0  0  0  0  0  0  0  0  0
    9.9544    1.1503   16.4549 N   0  0  0  0  0  0  0  0  0  0  0  0
   10.8497    0.7505   15.5031 C   0  0  0  0  0  0  0  0  0  0  0  0
   10.5214   -0.4959   15.0516 C   0  0  0  0  0  0  0  0  0  0  0  0
    9.3331   -0.7982   15.6602 N   0  0  0  0  0  0  0  0  0  0  0  0
    7.8094   -1.2697   19.3079 C   0  0  0  0  0  0  0  0  0  0  0  0
    8.4729   -1.6680   24.4889 H   0  0  0  0  0  0  0  0  0  0  0  0
    9.4810   -3.0613   26.1616 H   0  0  0  0  0  0  0  0  0  0  0  0
    8.9125   -4.4654   26.3916 H   0  0  0  0  0  0  0  0  0  0  0  0
    8.1633   -1.5119   26.9992 H   0  0  0  0  0  0  0  0  0  0  0  0
    8.6298   -2.7513   28.1367 H   0  0  0  0  0  0  0  0  0  0  0  0
    5.8227   -0.9094   26.7233 H   0  0  0  0  0  0  0  0  0  0  0  0
    3.6005   -1.2503   28.2087 H   0  0  0  0  0  0  0  0  0  0  0  0
    3.0511   -3.1034   30.4559 H   0  0  0  0  0  0  0  0  0  0  0  0
    4.0639   -4.9004   31.8284 H   0  0  0  0  0  0  0  0  0  0  0  0
    6.3865   -5.6412   31.3830 H   0  0  0  0  0  0  0  0  0  0  0  0
    7.7236   -4.6203   29.5541 H   0  0  0  0  0  0  0  0  0  0  0  0
    6.0133   -1.3936   21.3392 H   0  0  0  0  0  0  0  0  0  0  0  0
    5.9987   -0.0866   21.1805 H   0  0  0  0  0  0  0  0  0  0  0  0
    7.5350    1.6014   20.9214 H   0  0  0  0  0  0  0  0  0  0  0  0
    6.8178    0.4936   19.4273 H   0  0  0  0  0  0  0  0  0  0  0  0
    7.0955    2.3991   18.1989 H   0  0  0  0  0  0  0  0  0  0  0  0
    8.6817    2.0981   18.0871 H   0  0  0  0  0  0  0  0  0  0  0  0
    7.3033   -0.3272   17.0690 H   0  0  0  0  0  0  0  0  0  0  0  0
   11.6800    1.3764   15.2043 H   0  0  0  0  0  0  0  0  0  0  0  0
   10.9742   -1.1417   14.3136 H   0  0  0  0  0  0  0  0  0  0  0  0
    8.7517   -1.5912   15.4218 H   0  0  0  0  0  0  0  0  0  0  0  0
    6.7990   -1.0765   19.0010 H   0  0  0  0  0  0  0  0  0  0  0  0
    8.6845   -0.7636   19.5687 H   0  0  0  0  0  0  0  0  0  0  0  0
  1  2  2  0
  2  3  1  0
  3  4  1  0
  4  5  1  0
  5  6  1  0
  6  7  1  0
  7  8  2  0
  8  9  1  0
  9 10  2  0
 10 11  1  0
 11 12  2  0
 12 13  1  0
 13 14  2  0
  2 15  1  0
 15 16  1  0
 16 17  1  0
 17 18  1  0
 18 19  1  0
 19 20  1  0
 20 21  2  0
 21 22  1  0
 22 23  2  0
 23 24  1  0
 19 25  1  0
 14  6  1  0
 25 15  1  0
 14  9  1  0
 24 20  1  0
  3 26  1  0
  4 27  1  0
  4 28  1  0
  5 29  1  0
  5 30  1  0
  7 31  1  0
  8 32  1  0
 10 33  1  0
 11 34  1  0
 12 35  1  0
 13 36  1  0
 16 37  1  0
 16 38  1  0
 17 39  1  0
 17 40  1  0
 18 41  1  0
 18 42  1  0
 19 43  1  0
 22 44  1  0
 23 45  1  0
 24 46  1  0
 25 47  1  0
 25 48  1  0
M  END
>  <Energy>  (1309) 
1112.613266674955

>  <compound_id>  (1309) 
47212

>  <target_id>  (1309) 
1

>  <reference_id>  (1309) 
80

>  <inspiration_ids>  (1309) 
[40, 80]

>  <energy_score>  (1309) 
1124.054827967167

>  <distance_score>  (1309) 
4.959436871726372

>  <path>  (1309) 
/opt/xchem-fragalysis-2/maxwin/BulkDock/SCRATCH/511023/C47212-P80/C47212-P80.minimised.mol

>  <scratch_subdir>  (1309) 
/opt/xchem-fragalysis-2/maxwin/BulkDock/SCRATCH/511023/C47212-P80

>  <fragmenstein_runtime>  (1309) 
13.42228627204895

>  <fragmenstein_outcome>  (1309) 
too moved

>  <fragmenstein_mode>  (1309) 
expansion

>  <fragmenstein_error>  (1309) 


$$$$
C47213-P40
     RDKit          3D

 42 44  0  0  0  0  0  0  0  0999 V2000
    5.5740   -3.1396   20.1176 C   0  0  0  0  0  0  0  0  0  0  0  0
    6.7484   -2.8242   21.2645 N   0  0  0  0  0  0  0  0  0  0  0  0
    6.7471   -1.1490   20.3474 C   0  0  0  0  0  0  0  0  0  0  0  0
    7.6449    0.0201   19.3120 C   0  0  0  0  0  0  0  0  0  0  0  0
    8.4212    1.0282   19.7125 N   0  0  0  0  0  0  0  0  0  0  0  0
    8.7137    1.8588   18.6545 C   0  0  0  0  0  0  0  0  0  0  0  0
    8.4028    1.2104   17.5066 C   0  0  0  0  0  0  0  0  0  0  0  0
    7.4998    0.2887   17.9706 N   0  0  0  0  0  0  0  0  0  0  0  0
    6.1779   -3.2422   22.9248 C   0  0  0  0  0  0  0  0  0  0  0  0
    5.5971   -2.4588   23.6892 O   0  0  0  0  0  0  0  0  0  0  0  0
    6.3381   -4.9326   23.7475 C   0  0  0  0  0  0  0  0  0  0  0  0
    5.3758   -5.5350   24.8940 C   0  0  0  0  0  0  0  0  0  0  0  0
    4.7640   -4.6628   25.9765 C   0  0  0  0  0  0  0  0  0  0  0  0
    5.1433   -3.3865   26.3310 C   0  0  0  0  0  0  0  0  0  0  0  0
    4.2864   -2.8954   27.2720 N   0  0  0  0  0  0  0  0  0  0  0  0
    4.3103   -1.5362   27.7631 C   0  0  0  0  0  0  0  0  0  0  0  0
    3.4394   -3.8867   27.7034 C   0  0  0  0  0  0  0  0  0  0  0  0
    2.4575   -3.8712   28.7087 C   0  0  0  0  0  0  0  0  0  0  0  0
    1.7738   -5.0530   28.9772 C   0  0  0  0  0  0  0  0  0  0  0  0
    2.0621   -6.2055   28.2580 C   0  0  0  0  0  0  0  0  0  0  0  0
    3.0248   -6.2041   27.2323 C   0  0  0  0  0  0  0  0  0  0  0  0
    3.7325   -5.0200   26.9337 C   0  0  0  0  0  0  0  0  0  0  0  0
    4.9665   -3.9937   19.7591 H   0  0  0  0  0  0  0  0  0  0  0  0
    4.8842   -3.0600   20.8766 H   0  0  0  0  0  0  0  0  0  0  0  0
    6.1857   -3.9881   19.6822 H   0  0  0  0  0  0  0  0  0  0  0  0
    5.9169   -0.7868   20.9160 H   0  0  0  0  0  0  0  0  0  0  0  0
    7.5412   -0.8476   20.8606 H   0  0  0  0  0  0  0  0  0  0  0  0
    9.2306    2.8013   18.7890 H   0  0  0  0  0  0  0  0  0  0  0  0
    8.4844    1.4754   16.4621 H   0  0  0  0  0  0  0  0  0  0  0  0
    6.7141   -0.0170   17.4141 H   0  0  0  0  0  0  0  0  0  0  0  0
    6.5760   -5.7258   23.0440 H   0  0  0  0  0  0  0  0  0  0  0  0
    7.1318   -4.9200   24.4772 H   0  0  0  0  0  0  0  0  0  0  0  0
    5.9978   -6.2629   25.4444 H   0  0  0  0  0  0  0  0  0  0  0  0
    4.6136   -6.1892   24.4703 H   0  0  0  0  0  0  0  0  0  0  0  0
    5.9389   -2.7615   25.9472 H   0  0  0  0  0  0  0  0  0  0  0  0
    4.5756   -1.5566   28.8232 H   0  0  0  0  0  0  0  0  0  0  0  0
    3.3185   -1.0994   27.6199 H   0  0  0  0  0  0  0  0  0  0  0  0
    5.0501   -0.9553   27.2060 H   0  0  0  0  0  0  0  0  0  0  0  0
    2.2452   -2.9680   29.2727 H   0  0  0  0  0  0  0  0  0  0  0  0
    1.0145   -5.0634   29.7547 H   0  0  0  0  0  0  0  0  0  0  0  0
    1.5118   -7.1113   28.4808 H   0  0  0  0  0  0  0  0  0  0  0  0
    3.2434   -7.1080   26.6702 H   0  0  0  0  0  0  0  0  0  0  0  0
  1  2  1  0
  2  3  1  0
  3  4  1  0
  4  5  2  0
  5  6  1  0
  6  7  2  0
  7  8  1  0
  2  9  1  0
  9 10  2  0
  9 11  1  0
 11 12  1  0
 12 13  1  0
 13 14  2  0
 14 15  1  0
 15 16  1  0
 15 17  1  0
 17 18  2  0
 18 19  1  0
 19 20  2  0
 20 21  1  0
 21 22  2  0
  8  4  1  0
 22 13  1  0
 22 17  1  0
  1 23  1  0
  1 24  1  0
  1 25  1  0
  3 26  1  0
  3 27  1  0
  6 28  1  0
  7 29  1  0
  8 30  1  0
 11 31  1  0
 11 32  1  0
 12 33  1  0
 12 34  1  0
 14 35  1  0
 16 36  1  0
 16 37  1  0
 16 38  1  0
 18 39  1  0
 19 40  1  0
 20 41  1  0
 21 42  1  0
M  END
>  <Energy>  (1310) 
404.32150269493621

>  <compound_id>  (1310) 
47213

>  <target_id>  (1310) 
1

>  <reference_id>  (1310) 
40

>  <inspiration_ids>  (1310) 
[40, 80]

>  <energy_score>  (1310) 
371.1222026341653

>  <distance_score>  (1310) 
4.8600982758772835

>  <path>  (1310) 
/opt/xchem-fragalysis-2/maxwin/BulkDock/SCRATCH/511023/C47213-P40/C47213-P40.minimised.mol

>  <scratch_subdir>  (1310) 
/opt/xchem-fragalysis-2/maxwin/BulkDock/SCRATCH/511023/C47213-P40

>  <fragmenstein_runtime>  (1310) 
9.978484153747559

>  <fragmenstein_outcome>  (1310) 
too moved

>  <fragmenstein_mode>  (1310) 
expansion

>  <fragmenstein_error>  (1310) 


$$$$
C47213-P80
     RDKit          3D

 42 44  0  0  0  0  0  0  0  0999 V2000
    5.6662   -2.7625   21.0586 C   0  0  0  0  0  0  0  0  0  0  0  0
    5.2764   -1.4521   21.7507 N   0  0  0  0  0  0  0  0  0  0  0  0
    6.8214   -0.8015   20.7442 C   0  0  0  0  0  0  0  0  0  0  0  0
    7.1079   -0.5208   18.9161 C   0  0  0  0  0  0  0  0  0  0  0  0
    8.2564   -0.2330   18.2079 N   0  0  0  0  0  0  0  0  0  0  0  0
    8.2167   -0.0777   16.8146 C   0  0  0  0  0  0  0  0  0  0  0  0
    7.1292   -0.7734   16.4093 C   0  0  0  0  0  0  0  0  0  0  0  0
    6.2171   -0.9504   17.7093 N   0  0  0  0  0  0  0  0  0  0  0  0
    5.0463   -1.7141   23.4854 C   0  0  0  0  0  0  0  0  0  0  0  0
    5.8304   -1.6293   24.3971 O   0  0  0  0  0  0  0  0  0  0  0  0
    3.6256   -2.1334   24.0428 C   0  0  0  0  0  0  0  0  0  0  0  0
    3.6210   -2.7993   25.4128 C   0  0  0  0  0  0  0  0  0  0  0  0
    3.5774   -2.0667   26.7343 C   0  0  0  0  0  0  0  0  0  0  0  0
    4.3795   -1.0153   27.1174 C   0  0  0  0  0  0  0  0  0  0  0  0
    4.1100   -0.6965   28.4171 N   0  0  0  0  0  0  0  0  0  0  0  0
    4.7939    0.3393   29.1564 C   0  0  0  0  0  0  0  0  0  0  0  0
    3.1270   -1.5138   28.9273 C   0  0  0  0  0  0  0  0  0  0  0  0
    2.5493   -1.5738   30.2100 C   0  0  0  0  0  0  0  0  0  0  0  0
    1.5617   -2.5312   30.4569 C   0  0  0  0  0  0  0  0  0  0  0  0
    1.1539   -3.3956   29.4531 C   0  0  0  0  0  0  0  0  0  0  0  0
    1.7356   -3.3168   28.1821 C   0  0  0  0  0  0  0  0  0  0  0  0
    2.7499   -2.3725   27.8922 C   0  0  0  0  0  0  0  0  0  0  0  0
    6.6287   -3.1462   21.0834 H   0  0  0  0  0  0  0  0  0  0  0  0
    5.4367   -2.9685   20.0060 H   0  0  0  0  0  0  0  0  0  0  0  0
    4.8743   -3.4143   21.2262 H   0  0  0  0  0  0  0  0  0  0  0  0
    7.6368   -1.3108   20.9804 H   0  0  0  0  0  0  0  0  0  0  0  0
    6.9832    0.2242   20.9239 H   0  0  0  0  0  0  0  0  0  0  0  0
    9.0659    0.2746   16.2448 H   0  0  0  0  0  0  0  0  0  0  0  0
    6.8990   -1.2867   15.4839 H   0  0  0  0  0  0  0  0  0  0  0  0
    5.2974   -1.3554   17.8248 H   0  0  0  0  0  0  0  0  0  0  0  0
    3.0896   -1.2880   24.4488 H   0  0  0  0  0  0  0  0  0  0  0  0
    3.0648   -2.7439   23.3474 H   0  0  0  0  0  0  0  0  0  0  0  0
    2.7741   -3.4467   25.4765 H   0  0  0  0  0  0  0  0  0  0  0  0
    4.3744   -3.5180   25.3307 H   0  0  0  0  0  0  0  0  0  0  0  0
    5.1518   -0.5014   26.5615 H   0  0  0  0  0  0  0  0  0  0  0  0
    4.0518    1.0590   29.5119 H   0  0  0  0  0  0  0  0  0  0  0  0
    5.5129    0.8440   28.5058 H   0  0  0  0  0  0  0  0  0  0  0  0
    5.3176   -0.1237   29.9968 H   0  0  0  0  0  0  0  0  0  0  0  0
    2.8644   -0.8977   30.9981 H   0  0  0  0  0  0  0  0  0  0  0  0
    1.1106   -2.5950   31.4438 H   0  0  0  0  0  0  0  0  0  0  0  0
    0.3834   -4.1353   29.6490 H   0  0  0  0  0  0  0  0  0  0  0  0
    1.4054   -3.9991   27.4140 H   0  0  0  0  0  0  0  0  0  0  0  0
  1  2  1  0
  2  3  1  0
  3  4  1  0
  4  5  2  0
  5  6  1  0
  6  7  2  0
  7  8  1  0
  2  9  1  0
  9 10  2  0
  9 11  1  0
 11 12  1  0
 12 13  1  0
 13 14  2  0
 14 15  1  0
 15 16  1  0
 15 17  1  0
 17 18  2  0
 18 19  1  0
 19 20  2  0
 20 21  1  0
 21 22  2  0
  8  4  1  0
 22 13  1  0
 22 17  1  0
  1 23  1  0
  1 24  1  0
  1 25  1  0
  3 26  1  0
  3 27  1  0
  6 28  1  0
  7 29  1  0
  8 30  1  0
 11 31  1  0
 11 32  1  0
 12 33  1  0
 12 34  1  0
 14 35  1  0
 16 36  1  0
 16 37  1  0
 16 38  1  0
 18 39  1  0
 19 40  1  0
 20 41  1  0
 21 42  1  0
M  END
>  <Energy>  (1311) 
317.48146105666962

>  <compound_id>  (1311) 
47213

>  <target_id>  (1311) 
1

>  <reference_id>  (1311) 
80

>  <inspiration_ids>  (1311) 
[40, 80]

>  <energy_score>  (1311) 
284.28216099588985

>  <distance_score>  (1311) 
4.8207614121990865

>  <path>  (1311) 
/opt/xchem-fragalysis-2/maxwin/BulkDock/SCRATCH/511023/C47213-P80/C47213-P80.minimised.mol

>  <scratch_subdir>  (1311) 
/opt/xchem-fragalysis-2/maxwin/BulkDock/SCRATCH/511023/C47213-P80

>  <fragmenstein_runtime>  (1311) 
8.939173936843872

>  <fragmenstein_outcome>  (1311) 
too moved

>  <fragmenstein_mode>  (1311) 
expansion

>  <fragmenstein_error>  (1311) 


$$$$
C47214-P40
     RDKit          3D

 45 47  0  0  0  0  0  0  0  0999 V2000
   10.7325   -6.6471   21.2245 C   0  0  0  0  0  0  0  0  0  0  0  0
    9.7218   -5.0637   20.6991 C   0  0  0  0  0  0  0  0  0  0  0  0
   11.4302   -4.2064   21.2561 C   0  0  0  0  0  0  0  0  0  0  0  0
   12.7267   -4.3447   20.4067 C   0  0  0  0  0  0  0  0  0  0  0  0
   12.9983   -4.2339   19.0535 C   0  0  0  0  0  0  0  0  0  0  0  0
   14.3308   -4.4841   18.9107 N   0  0  0  0  0  0  0  0  0  0  0  0
   14.8488   -4.6377   20.1577 C   0  0  0  0  0  0  0  0  0  0  0  0
   13.9190   -4.5435   21.0788 N   0  0  0  0  0  0  0  0  0  0  0  0
    7.8005   -4.6804   21.6129 N   0  0  0  0  0  0  0  0  0  0  0  0
    6.9078   -5.6173   23.0422 C   0  0  0  0  0  0  0  0  0  0  0  0
    7.2824   -6.6770   23.5558 O   0  0  0  0  0  0  0  0  0  0  0  0
    5.7820   -5.1112   23.7992 C   0  0  0  0  0  0  0  0  0  0  0  0
    5.9501   -5.3366   25.3978 C   0  0  0  0  0  0  0  0  0  0  0  0
    4.9590   -4.5047   26.2110 C   0  0  0  0  0  0  0  0  0  0  0  0
    5.0170   -3.1258   26.3013 C   0  0  0  0  0  0  0  0  0  0  0  0
    4.0252   -2.6832   27.1253 N   0  0  0  0  0  0  0  0  0  0  0  0
    3.8000   -1.2938   27.4581 C   0  0  0  0  0  0  0  0  0  0  0  0
    3.2952   -3.7461   27.6048 C   0  0  0  0  0  0  0  0  0  0  0  0
    2.2018   -3.7674   28.4876 C   0  0  0  0  0  0  0  0  0  0  0  0
    1.6511   -4.9997   28.8227 C   0  0  0  0  0  0  0  0  0  0  0  0
    2.1738   -6.1685   28.2842 C   0  0  0  0  0  0  0  0  0  0  0  0
    3.2673   -6.1423   27.4011 C   0  0  0  0  0  0  0  0  0  0  0  0
    3.8517   -4.9068   27.0466 C   0  0  0  0  0  0  0  0  0  0  0  0
   10.9685   -6.8341   22.2816 H   0  0  0  0  0  0  0  0  0  0  0  0
   11.7645   -6.5179   20.8881 H   0  0  0  0  0  0  0  0  0  0  0  0
   10.2963   -7.6112   20.9243 H   0  0  0  0  0  0  0  0  0  0  0  0
   10.2113   -5.0062   21.6164 H   0  0  0  0  0  0  0  0  0  0  0  0
   11.2732   -3.1650   21.5085 H   0  0  0  0  0  0  0  0  0  0  0  0
   11.7575   -4.6071   22.2449 H   0  0  0  0  0  0  0  0  0  0  0  0
   12.3805   -4.0753   18.1837 H   0  0  0  0  0  0  0  0  0  0  0  0
   14.8196   -4.6300   18.0393 H   0  0  0  0  0  0  0  0  0  0  0  0
   15.8961   -4.8398   20.3336 H   0  0  0  0  0  0  0  0  0  0  0  0
    7.3425   -3.8058   21.4389 H   0  0  0  0  0  0  0  0  0  0  0  0
    5.0232   -5.8959   23.7884 H   0  0  0  0  0  0  0  0  0  0  0  0
    5.8696   -4.0352   23.8561 H   0  0  0  0  0  0  0  0  0  0  0  0
    6.9699   -5.0866   25.7149 H   0  0  0  0  0  0  0  0  0  0  0  0
    5.8147   -6.3993   25.6426 H   0  0  0  0  0  0  0  0  0  0  0  0
    5.7139   -2.4341   25.8430 H   0  0  0  0  0  0  0  0  0  0  0  0
    4.0771   -1.1441   28.5046 H   0  0  0  0  0  0  0  0  0  0  0  0
    4.4138   -0.6588   26.8139 H   0  0  0  0  0  0  0  0  0  0  0  0
    2.7444   -1.0591   27.3013 H   0  0  0  0  0  0  0  0  0  0  0  0
    1.7922   -2.8497   28.8993 H   0  0  0  0  0  0  0  0  0  0  0  0
    0.8030   -5.0362   29.5013 H   0  0  0  0  0  0  0  0  0  0  0  0
    1.7088   -7.1107   28.5400 H   0  0  0  0  0  0  0  0  0  0  0  0
    3.6704   -7.0618   26.9849 H   0  0  0  0  0  0  0  0  0  0  0  0
  1  2  1  0
  2  3  1  0
  3  4  1  0
  4  5  2  0
  5  6  1  0
  6  7  1  0
  7  8  2  0
  2  9  1  0
  9 10  1  0
 10 11  2  0
 10 12  1  0
 12 13  1  0
 13 14  1  0
 14 15  2  0
 15 16  1  0
 16 17  1  0
 16 18  1  0
 18 19  2  0
 19 20  1  0
 20 21  2  0
 21 22  1  0
 22 23  2  0
  8  4  1  0
 23 14  1  0
 23 18  1  0
  1 24  1  0
  1 25  1  0
  1 26  1  0
  2 27  1  0
  3 28  1  0
  3 29  1  0
  5 30  1  0
  6 31  1  0
  7 32  1  0
  9 33  1  0
 12 34  1  0
 12 35  1  0
 13 36  1  0
 13 37  1  0
 15 38  1  0
 17 39  1  0
 17 40  1  0
 17 41  1  0
 19 42  1  0
 20 43  1  0
 21 44  1  0
 22 45  1  0
M  END
>  <Energy>  (1312) 
500.22110076245713

>  <compound_id>  (1312) 
47214

>  <target_id>  (1312) 
1

>  <reference_id>  (1312) 
40

>  <inspiration_ids>  (1312) 
[40, 80]

>  <energy_score>  (1312) 
471.8725465837075

>  <distance_score>  (1312) 
4.4934900087517695

>  <path>  (1312) 
/opt/xchem-fragalysis-2/maxwin/BulkDock/SCRATCH/511023/C47214-P40/C47214-P40.minimised.mol

>  <scratch_subdir>  (1312) 
/opt/xchem-fragalysis-2/maxwin/BulkDock/SCRATCH/511023/C47214-P40

>  <fragmenstein_runtime>  (1312) 
8.10341191291809

>  <fragmenstein_outcome>  (1312) 
too moved

>  <fragmenstein_mode>  (1312) 
expansion

>  <fragmenstein_error>  (1312) 


$$$$
C47214-P80
     RDKit          3D

 45 47  0  0  0  0  0  0  0  0999 V2000
   10.7744   -7.4874   20.9722 C   0  0  0  0  0  0  0  0  0  0  0  0
   10.1036   -5.7397   20.0237 C   0  0  0  0  0  0  0  0  0  0  0  0
   12.0005   -5.1840   19.9081 C   0  0  0  0  0  0  0  0  0  0  0  0
   12.7692   -4.5724   18.6771 C   0  0  0  0  0  0  0  0  0  0  0  0
   12.4357   -4.2647   17.3662 C   0  0  0  0  0  0  0  0  0  0  0  0
   13.5268   -3.6423   16.8268 N   0  0  0  0  0  0  0  0  0  0  0  0
   14.5033   -3.6442   17.7736 C   0  0  0  0  0  0  0  0  0  0  0  0
   14.0925   -4.2155   18.8810 N   0  0  0  0  0  0  0  0  0  0  0  0
    8.5786   -4.6790   20.9042 N   0  0  0  0  0  0  0  0  0  0  0  0
    7.7321   -4.9247   22.5950 C   0  0  0  0  0  0  0  0  0  0  0  0
    7.9694   -5.8859   23.2877 O   0  0  0  0  0  0  0  0  0  0  0  0
    6.7082   -3.7929   23.5238 C   0  0  0  0  0  0  0  0  0  0  0  0
    5.5003   -2.3981   24.3074 C   0  0  0  0  0  0  0  0  0  0  0  0
    5.6439   -1.7350   25.8499 C   0  0  0  0  0  0  0  0  0  0  0  0
    6.7863   -1.5931   26.6437 C   0  0  0  0  0  0  0  0  0  0  0  0
    6.4299   -1.3386   27.9405 N   0  0  0  0  0  0  0  0  0  0  0  0
    7.3740   -1.1522   29.0178 C   0  0  0  0  0  0  0  0  0  0  0  0
    5.0684   -1.4182   28.0942 C   0  0  0  0  0  0  0  0  0  0  0  0
    4.2608   -1.3859   29.2502 C   0  0  0  0  0  0  0  0  0  0  0  0
    2.8818   -1.5605   29.1075 C   0  0  0  0  0  0  0  0  0  0  0  0
    2.3286   -1.7329   27.8486 C   0  0  0  0  0  0  0  0  0  0  0  0
    3.1549   -1.7396   26.7181 C   0  0  0  0  0  0  0  0  0  0  0  0
    4.5468   -1.5984   26.8107 C   0  0  0  0  0  0  0  0  0  0  0  0
   10.7733   -7.8111   22.0401 H   0  0  0  0  0  0  0  0  0  0  0  0
   11.8708   -7.4841   20.9377 H   0  0  0  0  0  0  0  0  0  0  0  0
   10.3093   -8.3396   20.4511 H   0  0  0  0  0  0  0  0  0  0  0  0
   10.6206   -5.1742   20.7349 H   0  0  0  0  0  0  0  0  0  0  0  0
   12.6408   -5.9815   20.2812 H   0  0  0  0  0  0  0  0  0  0  0  0
   12.1879   -4.4264   20.7122 H   0  0  0  0  0  0  0  0  0  0  0  0
   11.5369   -4.3972   16.7860 H   0  0  0  0  0  0  0  0  0  0  0  0
   13.6052   -3.2605   15.8947 H   0  0  0  0  0  0  0  0  0  0  0  0
   15.4860   -3.2245   17.6035 H   0  0  0  0  0  0  0  0  0  0  0  0
    8.1950   -3.8973   20.4667 H   0  0  0  0  0  0  0  0  0  0  0  0
    6.2990   -4.6779   23.9923 H   0  0  0  0  0  0  0  0  0  0  0  0
    7.3938   -3.6400   24.3418 H   0  0  0  0  0  0  0  0  0  0  0  0
    5.2678   -1.6266   23.5795 H   0  0  0  0  0  0  0  0  0  0  0  0
    4.4915   -2.8352   24.4838 H   0  0  0  0  0  0  0  0  0  0  0  0
    7.8251   -1.7665   26.3930 H   0  0  0  0  0  0  0  0  0  0  0  0
    7.1041   -0.2445   29.5637 H   0  0  0  0  0  0  0  0  0  0  0  0
    7.3286   -2.0261   29.6727 H   0  0  0  0  0  0  0  0  0  0  0  0
    8.3820   -1.0449   28.6088 H   0  0  0  0  0  0  0  0  0  0  0  0
    4.6970   -1.2525   30.2343 H   0  0  0  0  0  0  0  0  0  0  0  0
    2.2418   -1.5524   29.9850 H   0  0  0  0  0  0  0  0  0  0  0  0
    1.2573   -1.8600   27.7250 H   0  0  0  0  0  0  0  0  0  0  0  0
    2.7574   -1.8623   25.7288 H   0  0  0  0  0  0  0  0  0  0  0  0
  1  2  1  0
  2  3  1  0
  3  4  1  0
  4  5  2  0
  5  6  1  0
  6  7  1  0
  7  8  2  0
  2  9  1  0
  9 10  1  0
 10 11  2  0
 10 12  1  0
 12 13  1  0
 13 14  1  0
 14 15  2  0
 15 16  1  0
 16 17  1  0
 16 18  1  0
 18 19  2  0
 19 20  1  0
 20 21  2  0
 21 22  1  0
 22 23  2  0
  8  4  1  0
 23 14  1  0
 23 18  1  0
  1 24  1  0
  1 25  1  0
  1 26  1  0
  2 27  1  0
  3 28  1  0
  3 29  1  0
  5 30  1  0
  6 31  1  0
  7 32  1  0
  9 33  1  0
 12 34  1  0
 12 35  1  0
 13 36  1  0
 13 37  1  0
 15 38  1  0
 17 39  1  0
 17 40  1  0
 17 41  1  0
 19 42  1  0
 20 43  1  0
 21 44  1  0
 22 45  1  0
M  END
>  <Energy>  (1313) 
583.44525587117107

>  <compound_id>  (1313) 
47214

>  <target_id>  (1313) 
1

>  <reference_id>  (1313) 
80

>  <inspiration_ids>  (1313) 
[40, 80]

>  <energy_score>  (1313) 
555.0967016924267

>  <distance_score>  (1313) 
5.317507939144705

>  <path>  (1313) 
/opt/xchem-fragalysis-2/maxwin/BulkDock/SCRATCH/511023/C47214-P80/C47214-P80.minimised.mol

>  <scratch_subdir>  (1313) 
/opt/xchem-fragalysis-2/maxwin/BulkDock/SCRATCH/511023/C47214-P80

>  <fragmenstein_runtime>  (1313) 
10.648544549942017

>  <fragmenstein_outcome>  (1313) 
too moved

>  <fragmenstein_mode>  (1313) 
expansion

>  <fragmenstein_error>  (1313) 


$$$$
C47215-P40
     RDKit          3D

 45 47  0  0  0  0  0  0  0  0999 V2000
    3.4098   -1.7124   27.8110 C   0  0  0  0  0  0  0  0  0  0  0  0
    3.5194   -3.1169   27.4802 N   0  0  0  0  0  0  0  0  0  0  0  0
    4.4016   -3.6317   26.5731 C   0  0  0  0  0  0  0  0  0  0  0  0
    4.2396   -5.0057   26.4843 C   0  0  0  0  0  0  0  0  0  0  0  0
    5.0166   -5.9673   25.5635 C   0  0  0  0  0  0  0  0  0  0  0  0
    6.1415   -5.2848   24.7543 C   0  0  0  0  0  0  0  0  0  0  0  0
    6.4847   -5.7936   23.3036 C   0  0  0  0  0  0  0  0  0  0  0  0
    6.3289   -6.9324   23.0380 O   0  0  0  0  0  0  0  0  0  0  0  0
    6.9986   -4.6631   22.4665 N   0  0  0  0  0  0  0  0  0  0  0  0
    7.4952   -4.5746   20.5565 C   0  0  0  0  0  0  0  0  0  0  0  0
    6.1684   -4.1604   19.5771 C   0  0  0  0  0  0  0  0  0  0  0  0
    6.9969   -6.0836   19.2766 C   0  0  0  0  0  0  0  0  0  0  0  0
    9.5442   -4.7523   20.5604 C   0  0  0  0  0  0  0  0  0  0  0  0
   10.5996   -3.8795   21.4193 N   0  0  0  0  0  0  0  0  0  0  0  0
   11.8015   -4.4775   21.7079 C   0  0  0  0  0  0  0  0  0  0  0  0
   11.6332   -5.7443   21.2975 C   0  0  0  0  0  0  0  0  0  0  0  0
   10.5941   -5.6234   20.3603 N   0  0  0  0  0  0  0  0  0  0  0  0
    3.1983   -5.3167   27.4369 C   0  0  0  0  0  0  0  0  0  0  0  0
    2.5718   -6.5063   27.8529 C   0  0  0  0  0  0  0  0  0  0  0  0
    1.5385   -6.4645   28.8057 C   0  0  0  0  0  0  0  0  0  0  0  0
    1.1392   -5.2627   29.3756 C   0  0  0  0  0  0  0  0  0  0  0  0
    1.7464   -4.0703   28.9944 C   0  0  0  0  0  0  0  0  0  0  0  0
    2.7650   -4.1236   28.0283 C   0  0  0  0  0  0  0  0  0  0  0  0
    4.0364   -1.1258   27.1342 H   0  0  0  0  0  0  0  0  0  0  0  0
    2.3665   -1.4065   27.7005 H   0  0  0  0  0  0  0  0  0  0  0  0
    3.7455   -1.5770   28.8422 H   0  0  0  0  0  0  0  0  0  0  0  0
    5.0849   -2.9635   26.0634 H   0  0  0  0  0  0  0  0  0  0  0  0
    4.3046   -6.4736   24.9070 H   0  0  0  0  0  0  0  0  0  0  0  0
    5.4608   -6.7504   26.1911 H   0  0  0  0  0  0  0  0  0  0  0  0
    7.0577   -5.3403   25.3537 H   0  0  0  0  0  0  0  0  0  0  0  0
    5.8761   -4.2375   24.6533 H   0  0  0  0  0  0  0  0  0  0  0  0
    6.9184   -3.8150   22.9782 H   0  0  0  0  0  0  0  0  0  0  0  0
    5.6561   -3.2255   19.8858 H   0  0  0  0  0  0  0  0  0  0  0  0
    5.2263   -4.6602   19.3263 H   0  0  0  0  0  0  0  0  0  0  0  0
    6.6641   -4.3197   18.6695 H   0  0  0  0  0  0  0  0  0  0  0  0
    7.0660   -7.0811   19.7201 H   0  0  0  0  0  0  0  0  0  0  0  0
    7.3747   -6.1139   18.2838 H   0  0  0  0  0  0  0  0  0  0  0  0
    6.0676   -6.0477   18.6219 H   0  0  0  0  0  0  0  0  0  0  0  0
   12.5719   -3.9920   22.2885 H   0  0  0  0  0  0  0  0  0  0  0  0
   12.2358   -6.6322   21.3837 H   0  0  0  0  0  0  0  0  0  0  0  0
   10.9887   -5.2595   19.5163 H   0  0  0  0  0  0  0  0  0  0  0  0
    2.8895   -7.4385   27.3982 H   0  0  0  0  0  0  0  0  0  0  0  0
    1.0253   -7.3742   29.1001 H   0  0  0  0  0  0  0  0  0  0  0  0
    0.3427   -5.2417   30.1151 H   0  0  0  0  0  0  0  0  0  0  0  0
    1.4314   -3.1265   29.4301 H   0  0  0  0  0  0  0  0  0  0  0  0
  1  2  1  0
  2  3  1  0
  3  4  2  0
  4  5  1  0
  5  6  1  0
  6  7  1  0
  7  8  2  0
  7  9  1  0
  9 10  1  0
 10 11  1  0
 10 12  1  0
 10 13  1  0
 13 14  2  0
 14 15  1  0
 15 16  2  0
 16 17  1  0
  4 18  1  0
 18 19  2  0
 19 20  1  0
 20 21  2  0
 21 22  1  0
 22 23  2  0
 23  2  1  0
 17 13  1  0
 23 18  1  0
  1 24  1  0
  1 25  1  0
  1 26  1  0
  3 27  1  0
  5 28  1  0
  5 29  1  0
  6 30  1  0
  6 31  1  0
  9 32  1  0
 11 33  1  0
 11 34  1  0
 11 35  1  0
 12 36  1  0
 12 37  1  0
 12 38  1  0
 15 39  1  0
 16 40  1  0
 17 41  1  0
 19 42  1  0
 20 43  1  0
 21 44  1  0
 22 45  1  0
M  END
>  <Energy>  (1314) 
450.76437986850425

>  <compound_id>  (1314) 
47215

>  <target_id>  (1314) 
1

>  <reference_id>  (1314) 
40

>  <inspiration_ids>  (1314) 
[40, 80]

>  <energy_score>  (1314) 
404.45679807777117

>  <distance_score>  (1314) 
4.659858103011488

>  <path>  (1314) 
/opt/xchem-fragalysis-2/maxwin/BulkDock/SCRATCH/511023/C47215-P40/C47215-P40.minimised.mol

>  <scratch_subdir>  (1314) 
/opt/xchem-fragalysis-2/maxwin/BulkDock/SCRATCH/511023/C47215-P40

>  <fragmenstein_runtime>  (1314) 
12.8990797996521

>  <fragmenstein_outcome>  (1314) 
too moved

>  <fragmenstein_mode>  (1314) 
expansion

>  <fragmenstein_error>  (1314) 


$$$$
C47215-P80
     RDKit          3D

 45 47  0  0  0  0  0  0  0  0999 V2000
    4.2177    0.1802   25.9846 C   0  0  0  0  0  0  0  0  0  0  0  0
    4.1075   -1.2451   25.9974 N   0  0  0  0  0  0  0  0  0  0  0  0
    4.4413   -2.1173   24.9641 C   0  0  0  0  0  0  0  0  0  0  0  0
    4.0200   -3.4123   25.2677 C   0  0  0  0  0  0  0  0  0  0  0  0
    4.7025   -5.1285   24.7231 C   0  0  0  0  0  0  0  0  0  0  0  0
    6.2245   -6.2231   23.9998 C   0  0  0  0  0  0  0  0  0  0  0  0
    6.8322   -6.2496   22.6561 C   0  0  0  0  0  0  0  0  0  0  0  0
    6.4963   -7.1859   22.1174 O   0  0  0  0  0  0  0  0  0  0  0  0
    7.5983   -5.1657   22.0781 N   0  0  0  0  0  0  0  0  0  0  0  0
    8.1355   -4.8375   20.2653 C   0  0  0  0  0  0  0  0  0  0  0  0
    6.4875   -4.6543   19.5476 C   0  0  0  0  0  0  0  0  0  0  0  0
    7.1655   -6.3925   19.2172 C   0  0  0  0  0  0  0  0  0  0  0  0
    9.9973   -5.4804   19.6315 C   0  0  0  0  0  0  0  0  0  0  0  0
   11.1884   -5.5293   20.3983 N   0  0  0  0  0  0  0  0  0  0  0  0
   12.4728   -5.0969   19.8810 C   0  0  0  0  0  0  0  0  0  0  0  0
   12.4046   -4.7087   18.5665 C   0  0  0  0  0  0  0  0  0  0  0  0
   10.9812   -4.9973   18.1656 N   0  0  0  0  0  0  0  0  0  0  0  0
    3.0787   -3.0360   26.5737 C   0  0  0  0  0  0  0  0  0  0  0  0
    2.0718   -3.6393   27.4195 C   0  0  0  0  0  0  0  0  0  0  0  0
    1.6680   -3.1466   28.6679 C   0  0  0  0  0  0  0  0  0  0  0  0
    2.2482   -1.9985   29.1475 C   0  0  0  0  0  0  0  0  0  0  0  0
    3.1492   -1.3093   28.3420 C   0  0  0  0  0  0  0  0  0  0  0  0
    3.4888   -1.8226   27.0632 C   0  0  0  0  0  0  0  0  0  0  0  0
    3.7476    0.5233   25.0746 H   0  0  0  0  0  0  0  0  0  0  0  0
    3.6388    0.6487   26.7844 H   0  0  0  0  0  0  0  0  0  0  0  0
    5.2587    0.4504   26.1379 H   0  0  0  0  0  0  0  0  0  0  0  0
    5.0323   -1.7375   24.1495 H   0  0  0  0  0  0  0  0  0  0  0  0
    3.7865   -5.6545   25.1195 H   0  0  0  0  0  0  0  0  0  0  0  0
    4.1018   -6.1906   24.4576 H   0  0  0  0  0  0  0  0  0  0  0  0
    6.4637   -7.1872   24.5234 H   0  0  0  0  0  0  0  0  0  0  0  0
    5.4108   -6.8994   23.6490 H   0  0  0  0  0  0  0  0  0  0  0  0
    7.6767   -4.4378   22.7588 H   0  0  0  0  0  0  0  0  0  0  0  0
    5.8597   -3.8085   19.9547 H   0  0  0  0  0  0  0  0  0  0  0  0
    5.5035   -5.0926   19.2978 H   0  0  0  0  0  0  0  0  0  0  0  0
    6.7776   -4.7302   18.5529 H   0  0  0  0  0  0  0  0  0  0  0  0
    6.1753   -6.4383   18.6281 H   0  0  0  0  0  0  0  0  0  0  0  0
    7.1589   -7.3657   19.7034 H   0  0  0  0  0  0  0  0  0  0  0  0
    7.3409   -6.4420   18.1499 H   0  0  0  0  0  0  0  0  0  0  0  0
   13.3262   -5.0870   20.5445 H   0  0  0  0  0  0  0  0  0  0  0  0
   13.0747   -4.3178   17.8171 H   0  0  0  0  0  0  0  0  0  0  0  0
   10.6104   -4.6866   17.2865 H   0  0  0  0  0  0  0  0  0  0  0  0
    1.5571   -4.5235   27.0795 H   0  0  0  0  0  0  0  0  0  0  0  0
    0.9127   -3.6708   29.2440 H   0  0  0  0  0  0  0  0  0  0  0  0
    1.9682   -1.6001   30.1175 H   0  0  0  0  0  0  0  0  0  0  0  0
    3.5525   -0.3630   28.6885 H   0  0  0  0  0  0  0  0  0  0  0  0
  1  2  1  0
  2  3  1  0
  3  4  2  0
  4  5  1  0
  5  6  1  0
  6  7  1  0
  7  8  2  0
  7  9  1  0
  9 10  1  0
 10 11  1  0
 10 12  1  0
 10 13  1  0
 13 14  2  0
 14 15  1  0
 15 16  2  0
 16 17  1  0
  4 18  1  0
 18 19  2  0
 19 20  1  0
 20 21  2  0
 21 22  1  0
 22 23  2  0
 23  2  1  0
 17 13  1  0
 23 18  1  0
  1 24  1  0
  1 25  1  0
  1 26  1  0
  3 27  1  0
  5 28  1  0
  5 29  1  0
  6 30  1  0
  6 31  1  0
  9 32  1  0
 11 33  1  0
 11 34  1  0
 11 35  1  0
 12 36  1  0
 12 37  1  0
 12 38  1  0
 15 39  1  0
 16 40  1  0
 17 41  1  0
 19 42  1  0
 20 43  1  0
 21 44  1  0
 22 45  1  0
M  END
>  <Energy>  (1315) 
836.83409936227451

>  <compound_id>  (1315) 
47215

>  <target_id>  (1315) 
1

>  <reference_id>  (1315) 
80

>  <inspiration_ids>  (1315) 
[40, 80]

>  <energy_score>  (1315) 
790.5265175715473

>  <distance_score>  (1315) 
4.805125417069819

>  <path>  (1315) 
/opt/xchem-fragalysis-2/maxwin/BulkDock/SCRATCH/511023/C47215-P80/C47215-P80.minimised.mol

>  <scratch_subdir>  (1315) 
/opt/xchem-fragalysis-2/maxwin/BulkDock/SCRATCH/511023/C47215-P80

>  <fragmenstein_runtime>  (1315) 
9.31902027130127

>  <fragmenstein_outcome>  (1315) 
too moved

>  <fragmenstein_mode>  (1315) 
expansion

>  <fragmenstein_error>  (1315) 


$$$$
C47216-P40
     RDKit          3D

 38 40  0  0  0  0  0  0  0  0999 V2000
    4.4768   -2.7622   27.6703 C   0  0  0  0  0  0  0  0  0  0  0  0
    4.9690   -3.4937   26.5255 N   0  0  0  0  0  0  0  0  0  0  0  0
    5.2517   -2.9391   25.3247 C   0  0  0  0  0  0  0  0  0  0  0  0
    5.7954   -3.9057   24.4422 C   0  0  0  0  0  0  0  0  0  0  0  0
    6.2212   -3.3169   22.7493 C   0  0  0  0  0  0  0  0  0  0  0  0
    7.4404   -3.2263   21.4217 N   0  0  0  0  0  0  0  0  0  0  0  0
    8.4400   -3.6244   19.9420 C   0  0  0  0  0  0  0  0  0  0  0  0
    6.8425   -4.6363   19.3616 C   0  0  0  0  0  0  0  0  0  0  0  0
    6.9582   -6.0192   18.9648 O   0  0  0  0  0  0  0  0  0  0  0  0
    8.4712   -1.4054   19.2273 C   0  0  0  0  0  0  0  0  0  0  0  0
    8.8624   -0.5510   17.8298 N   0  0  0  0  0  0  0  0  0  0  0  0
    8.4274    0.7293   17.7505 C   0  0  0  0  0  0  0  0  0  0  0  0
    7.9318    1.0074   18.9576 C   0  0  0  0  0  0  0  0  0  0  0  0
    8.0792   -0.1031   19.7611 N   0  0  0  0  0  0  0  0  0  0  0  0
    5.6964   -5.1440   25.1867 C   0  0  0  0  0  0  0  0  0  0  0  0
    5.9294   -6.4992   24.9112 C   0  0  0  0  0  0  0  0  0  0  0  0
    5.7810   -7.4620   25.9213 C   0  0  0  0  0  0  0  0  0  0  0  0
    5.3975   -7.1021   27.2080 C   0  0  0  0  0  0  0  0  0  0  0  0
    5.0743   -5.7880   27.5035 C   0  0  0  0  0  0  0  0  0  0  0  0
    5.2209   -4.8377   26.4833 C   0  0  0  0  0  0  0  0  0  0  0  0
    4.3622   -1.7062   27.4121 H   0  0  0  0  0  0  0  0  0  0  0  0
    5.1982   -2.8660   28.4848 H   0  0  0  0  0  0  0  0  0  0  0  0
    3.5066   -3.1773   27.9555 H   0  0  0  0  0  0  0  0  0  0  0  0
    5.0940   -1.8807   25.1574 H   0  0  0  0  0  0  0  0  0  0  0  0
    5.4414   -2.8078   22.1369 H   0  0  0  0  0  0  0  0  0  0  0  0
    6.2082   -2.4499   23.3764 H   0  0  0  0  0  0  0  0  0  0  0  0
    7.6480   -4.2198   21.6721 H   0  0  0  0  0  0  0  0  0  0  0  0
    9.1568   -4.3513   20.2609 H   0  0  0  0  0  0  0  0  0  0  0  0
    5.8556   -4.2147   19.5610 H   0  0  0  0  0  0  0  0  0  0  0  0
    6.8106   -4.5199   18.3370 H   0  0  0  0  0  0  0  0  0  0  0  0
    6.3007   -6.2309   18.2752 H   0  0  0  0  0  0  0  0  0  0  0  0
    8.5529    1.3526   16.8763 H   0  0  0  0  0  0  0  0  0  0  0  0
    7.6518    1.9587   19.3780 H   0  0  0  0  0  0  0  0  0  0  0  0
    8.8087    0.1220   20.3942 H   0  0  0  0  0  0  0  0  0  0  0  0
    6.2310   -6.7985   23.9146 H   0  0  0  0  0  0  0  0  0  0  0  0
    5.9972   -8.5017   25.6817 H   0  0  0  0  0  0  0  0  0  0  0  0
    5.3679   -7.8462   27.9951 H   0  0  0  0  0  0  0  0  0  0  0  0
    4.7616   -5.5052   28.5019 H   0  0  0  0  0  0  0  0  0  0  0  0
  1  2  1  0
  2  3  1  0
  3  4  2  0
  4  5  1  0
  5  6  1  0
  6  7  1  0
  7  8  1  0
  8  9  1  0
  7 10  1  0
 10 11  2  0
 11 12  1  0
 12 13  2  0
 13 14  1  0
  4 15  1  0
 15 16  2  0
 16 17  1  0
 17 18  2  0
 18 19  1  0
 19 20  2  0
 20  2  1  0
 14 10  1  0
 20 15  1  0
  1 21  1  0
  1 22  1  0
  1 23  1  0
  3 24  1  0
  5 25  1  0
  5 26  1  0
  6 27  1  0
  7 28  1  0
  8 29  1  0
  8 30  1  0
  9 31  1  0
 12 32  1  0
 13 33  1  0
 14 34  1  0
 16 35  1  0
 17 36  1  0
 18 37  1  0
 19 38  1  0
M  END
>  <Energy>  (1316) 
741.76428134191724

>  <compound_id>  (1316) 
47216

>  <target_id>  (1316) 
1

>  <reference_id>  (1316) 
40

>  <inspiration_ids>  (1316) 
[40, 80]

>  <energy_score>  (1316) 
668.1612983308737

>  <distance_score>  (1316) 
6.466174652684523

>  <path>  (1316) 
/opt/xchem-fragalysis-2/maxwin/BulkDock/SCRATCH/511023/C47216-P40/C47216-P40.minimised.mol

>  <scratch_subdir>  (1316) 
/opt/xchem-fragalysis-2/maxwin/BulkDock/SCRATCH/511023/C47216-P40

>  <fragmenstein_runtime>  (1316) 
6.60744309425354

>  <fragmenstein_outcome>  (1316) 
too moved

>  <fragmenstein_mode>  (1316) 
expansion

>  <fragmenstein_error>  (1316) 


$$$$
C47216-P80
     RDKit          3D

 38 40  0  0  0  0  0  0  0  0999 V2000
    7.0447   -1.9325   26.0116 C   0  0  0  0  0  0  0  0  0  0  0  0
    6.0782   -2.4447   24.8533 N   0  0  0  0  0  0  0  0  0  0  0  0
    6.5741   -3.8875   24.1119 C   0  0  0  0  0  0  0  0  0  0  0  0
    5.3389   -5.0535   24.3619 C   0  0  0  0  0  0  0  0  0  0  0  0
    5.1648   -6.3365   22.7049 C   0  0  0  0  0  0  0  0  0  0  0  0
    6.8082   -6.3793   21.4607 N   0  0  0  0  0  0  0  0  0  0  0  0
    6.4985   -5.2437   19.6778 C   0  0  0  0  0  0  0  0  0  0  0  0
    7.7194   -4.7031   20.0982 C   0  0  0  0  0  0  0  0  0  0  0  0
    7.4749   -6.1703   19.1340 O   0  0  0  0  0  0  0  0  0  0  0  0
    6.1046   -5.6709   17.6963 C   0  0  0  0  0  0  0  0  0  0  0  0
    5.0885   -4.9391   16.6928 N   0  0  0  0  0  0  0  0  0  0  0  0
    5.8445   -3.7329   15.4270 C   0  0  0  0  0  0  0  0  0  0  0  0
    7.4444   -3.7504   15.6621 C   0  0  0  0  0  0  0  0  0  0  0  0
    7.1871   -5.5593   16.2387 N   0  0  0  0  0  0  0  0  0  0  0  0
    4.1909   -3.5375   24.9754 C   0  0  0  0  0  0  0  0  0  0  0  0
    3.0881   -3.2012   26.0458 C   0  0  0  0  0  0  0  0  0  0  0  0
    2.7416   -2.0430   26.7873 C   0  0  0  0  0  0  0  0  0  0  0  0
    3.3174   -0.8901   26.4228 C   0  0  0  0  0  0  0  0  0  0  0  0
    4.2417   -0.9892   25.4132 C   0  0  0  0  0  0  0  0  0  0  0  0
    4.7443   -2.2257   24.8899 C   0  0  0  0  0  0  0  0  0  0  0  0
    7.9308   -1.4698   25.5818 H   0  0  0  0  0  0  0  0  0  0  0  0
    7.4666   -2.7508   26.6020 H   0  0  0  0  0  0  0  0  0  0  0  0
    6.4644   -1.2686   26.6542 H   0  0  0  0  0  0  0  0  0  0  0  0
    7.2971   -3.9728   23.3444 H   0  0  0  0  0  0  0  0  0  0  0  0
    4.1332   -5.3304   21.6129 H   0  0  0  0  0  0  0  0  0  0  0  0
    4.0693   -5.2982   21.7126 H   0  0  0  0  0  0  0  0  0  0  0  0
    6.6934   -7.3086   21.0948 H   0  0  0  0  0  0  0  0  0  0  0  0
    5.6860   -4.4771   19.7577 H   0  0  0  0  0  0  0  0  0  0  0  0
    7.9479   -4.7367   21.1499 H   0  0  0  0  0  0  0  0  0  0  0  0
    8.7195   -4.4191   19.8592 H   0  0  0  0  0  0  0  0  0  0  0  0
    7.5729   -6.8976   19.7866 H   0  0  0  0  0  0  0  0  0  0  0  0
    5.1828   -3.0426   14.9273 H   0  0  0  0  0  0  0  0  0  0  0  0
    8.3348   -3.5253   15.0565 H   0  0  0  0  0  0  0  0  0  0  0  0
    6.6315   -6.1039   15.6324 H   0  0  0  0  0  0  0  0  0  0  0  0
    2.3373   -3.9208   26.3845 H   0  0  0  0  0  0  0  0  0  0  0  0
    1.9467   -2.0726   27.5230 H   0  0  0  0  0  0  0  0  0  0  0  0
    3.0615    0.0590   26.8709 H   0  0  0  0  0  0  0  0  0  0  0  0
    4.7709   -0.0873   25.1679 H   0  0  0  0  0  0  0  0  0  0  0  0
  1  2  1  0
  2  3  1  0
  3  4  2  0
  4  5  1  0
  5  6  1  0
  6  7  1  0
  7  8  1  0
  8  9  1  0
  7 10  1  0
 10 11  2  0
 11 12  1  0
 12 13  2  0
 13 14  1  0
  4 15  1  0
 15 16  2  0
 16 17  1  0
 17 18  2  0
 18 19  1  0
 19 20  2  0
 20  2  1  0
 14 10  1  0
 20 15  1  0
  1 21  1  0
  1 22  1  0
  1 23  1  0
  3 24  1  0
  5 25  1  0
  5 26  1  0
  6 27  1  0
  7 28  1  0
  8 29  1  0
  8 30  1  0
  9 31  1  0
 12 32  1  0
 13 33  1  0
 14 34  1  0
 16 35  1  0
 17 36  1  0
 18 37  1  0
 19 38  1  0
M  END
>  <Energy>  (1317) 
1592.6904584078666

>  <compound_id>  (1317) 
47216

>  <target_id>  (1317) 
1

>  <reference_id>  (1317) 
80

>  <inspiration_ids>  (1317) 
[40, 80]

>  <energy_score>  (1317) 
1519.0874753968287

>  <distance_score>  (1317) 
6.433447604555919

>  <path>  (1317) 
/opt/xchem-fragalysis-2/maxwin/BulkDock/SCRATCH/511023/C47216-P80/C47216-P80.minimised.mol

>  <scratch_subdir>  (1317) 
/opt/xchem-fragalysis-2/maxwin/BulkDock/SCRATCH/511023/C47216-P80

>  <fragmenstein_runtime>  (1317) 
8.99878478050232

>  <fragmenstein_outcome>  (1317) 
too moved

>  <fragmenstein_mode>  (1317) 
expansion

>  <fragmenstein_error>  (1317) 


$$$$
C47217-P40
     RDKit          3D

 32 34  0  0  0  0  0  0  0  0999 V2000
    3.8402   -2.8874   17.2329 O   0  0  0  0  0  0  0  0  0  0  0  0
    4.5994   -2.1919   17.9101 C   0  0  0  0  0  0  0  0  0  0  0  0
    5.0023   -1.0612   17.4208 O   0  0  0  0  0  0  0  0  0  0  0  0
    5.3501   -2.7666   19.6305 C   0  0  0  0  0  0  0  0  0  0  0  0
    5.8508   -1.6633   20.8154 C   0  0  0  0  0  0  0  0  0  0  0  0
    7.0685   -0.3335   19.8582 C   0  0  0  0  0  0  0  0  0  0  0  0
    7.3536    1.0118   19.9884 N   0  0  0  0  0  0  0  0  0  0  0  0
    8.2577    1.5898   19.1406 C   0  0  0  0  0  0  0  0  0  0  0  0
    8.3180    0.7506   18.1043 C   0  0  0  0  0  0  0  0  0  0  0  0
    7.2200   -0.0073   18.4568 N   0  0  0  0  0  0  0  0  0  0  0  0
    5.0436   -1.6049   22.7402 C   0  0  0  0  0  0  0  0  0  0  0  0
    5.6315   -2.5502   23.6759 C   0  0  0  0  0  0  0  0  0  0  0  0
    5.2476   -2.6484   24.9726 N   0  0  0  0  0  0  0  0  0  0  0  0
    4.6503   -1.5108   25.3430 C   0  0  0  0  0  0  0  0  0  0  0  0
    4.2444   -1.1753   26.6518 C   0  0  0  0  0  0  0  0  0  0  0  0
    3.8518    0.1201   26.9156 C   0  0  0  0  0  0  0  0  0  0  0  0
    3.9276    1.0441   25.8989 C   0  0  0  0  0  0  0  0  0  0  0  0
    4.3335    0.6632   24.5973 C   0  0  0  0  0  0  0  0  0  0  0  0
    4.6491   -0.6929   24.1822 C   0  0  0  0  0  0  0  0  0  0  0  0
    5.1947   -0.5576   18.2176 H   0  0  0  0  0  0  0  0  0  0  0  0
    5.8621   -3.7420   19.4549 H   0  0  0  0  0  0  0  0  0  0  0  0
    4.7531   -3.3217   20.3206 H   0  0  0  0  0  0  0  0  0  0  0  0
    6.5338   -2.5514   21.0689 H   0  0  0  0  0  0  0  0  0  0  0  0
    8.6790    2.5746   19.2904 H   0  0  0  0  0  0  0  0  0  0  0  0
    8.7001    0.8431   17.0975 H   0  0  0  0  0  0  0  0  0  0  0  0
    6.6057   -0.2538   17.7006 H   0  0  0  0  0  0  0  0  0  0  0  0
    6.1889   -3.3996   23.3219 H   0  0  0  0  0  0  0  0  0  0  0  0
    5.5755   -3.3731   25.5957 H   0  0  0  0  0  0  0  0  0  0  0  0
    4.2868   -1.9080   27.4516 H   0  0  0  0  0  0  0  0  0  0  0  0
    3.5387    0.4152   27.9113 H   0  0  0  0  0  0  0  0  0  0  0  0
    3.6560    2.0808   26.0811 H   0  0  0  0  0  0  0  0  0  0  0  0
    4.2729    1.4603   23.8573 H   0  0  0  0  0  0  0  0  0  0  0  0
  1  2  2  0
  2  3  1  0
  2  4  1  0
  4  5  1  0
  5  6  1  0
  6  7  2  0
  7  8  1  0
  8  9  2  0
  9 10  1  0
  5 11  1  0
 11 12  2  0
 12 13  1  0
 13 14  1  0
 14 15  2  0
 15 16  1  0
 16 17  2  0
 17 18  1  0
 18 19  2  0
 10  6  1  0
 19 11  1  0
 19 14  1  0
  3 20  1  0
  4 21  1  0
  4 22  1  0
  5 23  1  0
  8 24  1  0
  9 25  1  0
 10 26  1  0
 12 27  1  0
 13 28  1  0
 15 29  1  0
 16 30  1  0
 17 31  1  0
 18 32  1  0
M  END
>  <Energy>  (1318) 
421.16775525594409

>  <compound_id>  (1318) 
47217

>  <target_id>  (1318) 
1

>  <reference_id>  (1318) 
40

>  <inspiration_ids>  (1318) 
[40, 80]

>  <energy_score>  (1318) 
403.3682805258466

>  <distance_score>  (1318) 
7.534742799737176

>  <path>  (1318) 
/opt/xchem-fragalysis-2/maxwin/BulkDock/SCRATCH/511023/C47217-P40/C47217-P40.minimised.mol

>  <scratch_subdir>  (1318) 
/opt/xchem-fragalysis-2/maxwin/BulkDock/SCRATCH/511023/C47217-P40

>  <fragmenstein_runtime>  (1318) 
6.541015148162842

>  <fragmenstein_outcome>  (1318) 
too moved

>  <fragmenstein_mode>  (1318) 
expansion

>  <fragmenstein_error>  (1318) 


$$$$
C47217-P80
     RDKit          3D

 32 34  0  0  0  0  0  0  0  0999 V2000
    7.4673   -0.2682   15.5903 O   0  0  0  0  0  0  0  0  0  0  0  0
    6.9747   -1.1917   16.1901 C   0  0  0  0  0  0  0  0  0  0  0  0
    7.1371   -2.3386   15.4845 O   0  0  0  0  0  0  0  0  0  0  0  0
    5.9983   -1.1275   17.8419 C   0  0  0  0  0  0  0  0  0  0  0  0
    6.9848   -0.6786   19.3974 C   0  0  0  0  0  0  0  0  0  0  0  0
    8.0934    0.1458   18.0213 C   0  0  0  0  0  0  0  0  0  0  0  0
    9.0488   -0.3454   17.2008 N   0  0  0  0  0  0  0  0  0  0  0  0
    9.6451    0.6403   16.4031 C   0  0  0  0  0  0  0  0  0  0  0  0
    9.0926    1.8482   16.6857 C   0  0  0  0  0  0  0  0  0  0  0  0
    8.1469    1.5843   17.6360 N   0  0  0  0  0  0  0  0  0  0  0  0
    6.1996   -1.2061   21.2647 C   0  0  0  0  0  0  0  0  0  0  0  0
    5.5697   -2.3766   21.7063 C   0  0  0  0  0  0  0  0  0  0  0  0
    5.6260   -2.1856   23.4307 N   0  0  0  0  0  0  0  0  0  0  0  0
    5.1869   -0.9408   23.9791 C   0  0  0  0  0  0  0  0  0  0  0  0
    4.7171   -0.7662   25.3510 C   0  0  0  0  0  0  0  0  0  0  0  0
    3.9460   -1.7120   25.9136 C   0  0  0  0  0  0  0  0  0  0  0  0
    3.4454   -2.5480   24.9854 C   0  0  0  0  0  0  0  0  0  0  0  0
    3.5695   -2.3141   23.5369 C   0  0  0  0  0  0  0  0  0  0  0  0
    4.7878   -1.2577   22.6943 C   0  0  0  0  0  0  0  0  0  0  0  0
    7.7916   -2.0838   14.7902 H   0  0  0  0  0  0  0  0  0  0  0  0
    4.9309   -1.0867   17.6923 H   0  0  0  0  0  0  0  0  0  0  0  0
    5.5969   -2.0279   18.2581 H   0  0  0  0  0  0  0  0  0  0  0  0
    7.1475    0.3008   19.7824 H   0  0  0  0  0  0  0  0  0  0  0  0
   10.4083    0.3890   15.6783 H   0  0  0  0  0  0  0  0  0  0  0  0
    9.2325    2.8363   16.2737 H   0  0  0  0  0  0  0  0  0  0  0  0
    7.3918    2.1935   17.9049 H   0  0  0  0  0  0  0  0  0  0  0  0
    5.4306   -3.2411   21.1243 H   0  0  0  0  0  0  0  0  0  0  0  0
    5.9125   -2.8566   24.1590 H   0  0  0  0  0  0  0  0  0  0  0  0
    5.1027    0.0389   25.9658 H   0  0  0  0  0  0  0  0  0  0  0  0
    3.7303   -1.7771   26.9666 H   0  0  0  0  0  0  0  0  0  0  0  0
    2.8973   -3.3877   25.3518 H   0  0  0  0  0  0  0  0  0  0  0  0
    2.9588   -3.0063   22.9519 H   0  0  0  0  0  0  0  0  0  0  0  0
  1  2  2  0
  2  3  1  0
  2  4  1  0
  4  5  1  0
  5  6  1  0
  6  7  2  0
  7  8  1  0
  8  9  2  0
  9 10  1  0
  5 11  1  0
 11 12  2  0
 12 13  1  0
 13 14  1  0
 14 15  2  0
 15 16  1  0
 16 17  2  0
 17 18  1  0
 18 19  2  0
 10  6  1  0
 19 11  1  0
 19 14  1  0
  3 20  1  0
  4 21  1  0
  4 22  1  0
  5 23  1  0
  8 24  1  0
  9 25  1  0
 10 26  1  0
 12 27  1  0
 13 28  1  0
 15 29  1  0
 16 30  1  0
 17 31  1  0
 18 32  1  0
M  END
>  <Energy>  (1319) 
859.38330077709372

>  <compound_id>  (1319) 
47217

>  <target_id>  (1319) 
1

>  <reference_id>  (1319) 
80

>  <inspiration_ids>  (1319) 
[40, 80]

>  <energy_score>  (1319) 
841.5838260469841

>  <distance_score>  (1319) 
7.170210139058329

>  <path>  (1319) 
/opt/xchem-fragalysis-2/maxwin/BulkDock/SCRATCH/511023/C47217-P80/C47217-P80.minimised.mol

>  <scratch_subdir>  (1319) 
/opt/xchem-fragalysis-2/maxwin/BulkDock/SCRATCH/511023/C47217-P80

>  <fragmenstein_runtime>  (1319) 
12.108001470565796

>  <fragmenstein_outcome>  (1319) 
too moved

>  <fragmenstein_mode>  (1319) 
expansion

>  <fragmenstein_error>  (1319) 


$$$$
C47218-P40
     RDKit          3D

 41 43  0  0  0  0  0  0  0  0999 V2000
    1.3271   -4.4048   30.0209 C   0  0  0  0  0  0  0  0  0  0  0  0
    2.0164   -5.1042   28.9850 O   0  0  0  0  0  0  0  0  0  0  0  0
    2.7667   -4.3401   28.1225 C   0  0  0  0  0  0  0  0  0  0  0  0
    3.2945   -5.0078   27.0246 C   0  0  0  0  0  0  0  0  0  0  0  0
    4.0464   -4.3430   26.0282 C   0  0  0  0  0  0  0  0  0  0  0  0
    4.2837   -2.9575   26.1179 C   0  0  0  0  0  0  0  0  0  0  0  0
    3.8286   -2.2942   27.2741 C   0  0  0  0  0  0  0  0  0  0  0  0
    4.2811   -0.9576   27.1820 C   0  0  0  0  0  0  0  0  0  0  0  0
    4.9310   -0.8028   25.9813 C   0  0  0  0  0  0  0  0  0  0  0  0
    4.8814   -1.9927   25.2700 N   0  0  0  0  0  0  0  0  0  0  0  0
    5.0441   -1.9472   23.7401 C   0  0  0  0  0  0  0  0  0  0  0  0
    6.1550   -3.2636   23.1086 C   0  0  0  0  0  0  0  0  0  0  0  0
    6.1559   -4.2186   23.8948 O   0  0  0  0  0  0  0  0  0  0  0  0
    7.0161   -3.1818   21.5484 N   0  0  0  0  0  0  0  0  0  0  0  0
    7.7968   -4.2178   20.8207 C   0  0  0  0  0  0  0  0  0  0  0  0
    9.6741   -4.8934   20.6161 C   0  0  0  0  0  0  0  0  0  0  0  0
    9.9662   -5.6176   19.5016 O   0  0  0  0  0  0  0  0  0  0  0  0
   11.2313   -4.6200   21.3618 C   0  0  0  0  0  0  0  0  0  0  0  0
   11.7503   -3.8009   22.3470 C   0  0  0  0  0  0  0  0  0  0  0  0
   13.1128   -3.8516   22.2116 N   0  0  0  0  0  0  0  0  0  0  0  0
   13.4000   -4.7448   21.2293 C   0  0  0  0  0  0  0  0  0  0  0  0
   12.3040   -5.2561   20.7302 N   0  0  0  0  0  0  0  0  0  0  0  0
    3.0595   -2.9836   28.2591 C   0  0  0  0  0  0  0  0  0  0  0  0
    0.7138   -5.1320   30.5617 H   0  0  0  0  0  0  0  0  0  0  0  0
    0.6579   -3.6438   29.6058 H   0  0  0  0  0  0  0  0  0  0  0  0
    2.0346   -3.9671   30.7322 H   0  0  0  0  0  0  0  0  0  0  0  0
    3.1400   -6.0790   26.9172 H   0  0  0  0  0  0  0  0  0  0  0  0
    4.4613   -4.9367   25.2226 H   0  0  0  0  0  0  0  0  0  0  0  0
    4.1254   -0.1731   27.9103 H   0  0  0  0  0  0  0  0  0  0  0  0
    5.3685    0.0816   25.5381 H   0  0  0  0  0  0  0  0  0  0  0  0
    3.9978   -2.0820   23.4434 H   0  0  0  0  0  0  0  0  0  0  0  0
    5.1165   -0.9099   23.4407 H   0  0  0  0  0  0  0  0  0  0  0  0
    6.7705   -2.3320   21.0701 H   0  0  0  0  0  0  0  0  0  0  0  0
    7.1859   -4.5318   19.9372 H   0  0  0  0  0  0  0  0  0  0  0  0
    7.4284   -4.8709   21.6297 H   0  0  0  0  0  0  0  0  0  0  0  0
    9.1543   -4.0498   20.1385 H   0  0  0  0  0  0  0  0  0  0  0  0
   10.7575   -5.1235   19.1850 H   0  0  0  0  0  0  0  0  0  0  0  0
   11.3099   -3.1555   23.0909 H   0  0  0  0  0  0  0  0  0  0  0  0
   13.7828   -3.3287   22.7581 H   0  0  0  0  0  0  0  0  0  0  0  0
   14.4092   -4.9910   20.9269 H   0  0  0  0  0  0  0  0  0  0  0  0
    2.7170   -2.4093   29.1122 H   0  0  0  0  0  0  0  0  0  0  0  0
  1  2  1  0
  2  3  1  0
  3  4  2  0
  4  5  1  0
  5  6  2  0
  6  7  1  0
  7  8  1  0
  8  9  2  0
  9 10  1  0
 10 11  1  0
 11 12  1  0
 12 13  2  0
 12 14  1  0
 14 15  1  0
 15 16  1  0
 16 17  1  0
 16 18  1  0
 18 19  2  0
 19 20  1  0
 20 21  1  0
 21 22  2  0
  7 23  2  0
 23  3  1  0
 10  6  1  0
 22 18  1  0
  1 24  1  0
  1 25  1  0
  1 26  1  0
  4 27  1  0
  5 28  1  0
  8 29  1  0
  9 30  1  0
 11 31  1  0
 11 32  1  0
 14 33  1  0
 15 34  1  0
 15 35  1  0
 16 36  1  0
 17 37  1  0
 19 38  1  0
 20 39  1  0
 21 40  1  0
 23 41  1  0
M  END
>  <Energy>  (1320) 
351.1412868483452

>  <compound_id>  (1320) 
47218

>  <target_id>  (1320) 
1

>  <reference_id>  (1320) 
40

>  <inspiration_ids>  (1320) 
[40, 80]

>  <energy_score>  (1320) 
266.9026295075948

>  <distance_score>  (1320) 
5.78378509879057

>  <path>  (1320) 
/opt/xchem-fragalysis-2/maxwin/BulkDock/SCRATCH/511023/C47218-P40/C47218-P40.minimised.mol

>  <scratch_subdir>  (1320) 
/opt/xchem-fragalysis-2/maxwin/BulkDock/SCRATCH/511023/C47218-P40

>  <fragmenstein_runtime>  (1320) 
16.489648580551147

>  <fragmenstein_outcome>  (1320) 
too moved

>  <fragmenstein_mode>  (1320) 
expansion

>  <fragmenstein_error>  (1320) 


$$$$
C47218-P80
     RDKit          3D

 41 43  0  0  0  0  0  0  0  0999 V2000
    1.7545   -4.3935   31.5179 C   0  0  0  0  0  0  0  0  0  0  0  0
    3.1033   -4.0031   31.2546 O   0  0  0  0  0  0  0  0  0  0  0  0
    3.3496   -3.4005   30.0478 C   0  0  0  0  0  0  0  0  0  0  0  0
    4.6937   -3.2789   29.6794 C   0  0  0  0  0  0  0  0  0  0  0  0
    5.0922   -2.8126   28.3993 C   0  0  0  0  0  0  0  0  0  0  0  0
    4.0834   -2.4856   27.4703 C   0  0  0  0  0  0  0  0  0  0  0  0
    2.7738   -2.3428   27.9518 C   0  0  0  0  0  0  0  0  0  0  0  0
    2.1734   -1.4503   27.0589 C   0  0  0  0  0  0  0  0  0  0  0  0
    3.0640   -1.2449   26.0284 C   0  0  0  0  0  0  0  0  0  0  0  0
    4.0227   -2.2311   26.0568 N   0  0  0  0  0  0  0  0  0  0  0  0
    5.1646   -2.3482   25.0112 C   0  0  0  0  0  0  0  0  0  0  0  0
    5.7945   -2.4971   23.4673 C   0  0  0  0  0  0  0  0  0  0  0  0
    5.2792   -1.6786   22.7317 O   0  0  0  0  0  0  0  0  0  0  0  0
    7.2699   -3.6655   22.9881 N   0  0  0  0  0  0  0  0  0  0  0  0
    8.4302   -3.6976   21.2805 C   0  0  0  0  0  0  0  0  0  0  0  0
   10.7559   -3.3896   21.2401 C   0  0  0  0  0  0  0  0  0  0  0  0
   11.3941   -4.8742   20.9598 O   0  0  0  0  0  0  0  0  0  0  0  0
   12.4210   -3.1562   20.3914 C   0  0  0  0  0  0  0  0  0  0  0  0
   12.9656   -3.4253   19.1161 C   0  0  0  0  0  0  0  0  0  0  0  0
   14.3038   -3.1688   19.1994 N   0  0  0  0  0  0  0  0  0  0  0  0
   14.5918   -2.9547   20.5102 C   0  0  0  0  0  0  0  0  0  0  0  0
   13.5169   -3.0307   21.2574 N   0  0  0  0  0  0  0  0  0  0  0  0
    2.3824   -2.8649   29.2053 C   0  0  0  0  0  0  0  0  0  0  0  0
    1.3586   -5.0207   30.7120 H   0  0  0  0  0  0  0  0  0  0  0  0
    1.1226   -3.5154   31.6832 H   0  0  0  0  0  0  0  0  0  0  0  0
    1.7531   -4.9855   32.4377 H   0  0  0  0  0  0  0  0  0  0  0  0
    5.4641   -3.6085   30.3730 H   0  0  0  0  0  0  0  0  0  0  0  0
    6.1400   -2.8062   28.1189 H   0  0  0  0  0  0  0  0  0  0  0  0
    1.2346   -0.9363   27.2024 H   0  0  0  0  0  0  0  0  0  0  0  0
    3.0733   -0.5483   25.2145 H   0  0  0  0  0  0  0  0  0  0  0  0
    6.0350   -2.0137   25.6212 H   0  0  0  0  0  0  0  0  0  0  0  0
    4.9455   -1.2921   24.7456 H   0  0  0  0  0  0  0  0  0  0  0  0
    7.4574   -4.3089   23.7456 H   0  0  0  0  0  0  0  0  0  0  0  0
    7.7764   -2.9574   21.1596 H   0  0  0  0  0  0  0  0  0  0  0  0
    8.1186   -4.5282   20.6533 H   0  0  0  0  0  0  0  0  0  0  0  0
   11.2017   -3.2812   22.2904 H   0  0  0  0  0  0  0  0  0  0  0  0
   12.2540   -4.8331   21.4370 H   0  0  0  0  0  0  0  0  0  0  0  0
   12.5288   -3.7496   18.1829 H   0  0  0  0  0  0  0  0  0  0  0  0
   14.9737   -3.2154   18.4444 H   0  0  0  0  0  0  0  0  0  0  0  0
   15.5970   -2.7772   20.8676 H   0  0  0  0  0  0  0  0  0  0  0  0
    1.3474   -2.7635   29.5073 H   0  0  0  0  0  0  0  0  0  0  0  0
  1  2  1  0
  2  3  1  0
  3  4  2  0
  4  5  1  0
  5  6  2  0
  6  7  1  0
  7  8  1  0
  8  9  2  0
  9 10  1  0
 10 11  1  0
 11 12  1  0
 12 13  2  0
 12 14  1  0
 14 15  1  0
 15 16  1  0
 16 17  1  0
 16 18  1  0
 18 19  2  0
 19 20  1  0
 20 21  1  0
 21 22  2  0
  7 23  2  0
 23  3  1  0
 10  6  1  0
 22 18  1  0
  1 24  1  0
  1 25  1  0
  1 26  1  0
  4 27  1  0
  5 28  1  0
  8 29  1  0
  9 30  1  0
 11 31  1  0
 11 32  1  0
 14 33  1  0
 15 34  1  0
 15 35  1  0
 16 36  1  0
 17 37  1  0
 19 38  1  0
 20 39  1  0
 21 40  1  0
 23 41  1  0
M  END
>  <Energy>  (1321) 
744.20591307209156

>  <compound_id>  (1321) 
47218

>  <target_id>  (1321) 
1

>  <reference_id>  (1321) 
80

>  <inspiration_ids>  (1321) 
[40, 80]

>  <energy_score>  (1321) 
659.9672557313468

>  <distance_score>  (1321) 
4.802136857487836

>  <path>  (1321) 
/opt/xchem-fragalysis-2/maxwin/BulkDock/SCRATCH/511023/C47218-P80/C47218-P80.minimised.mol

>  <scratch_subdir>  (1321) 
/opt/xchem-fragalysis-2/maxwin/BulkDock/SCRATCH/511023/C47218-P80

>  <fragmenstein_runtime>  (1321) 
10.89174222946167

>  <fragmenstein_outcome>  (1321) 
too moved

>  <fragmenstein_mode>  (1321) 
expansion

>  <fragmenstein_error>  (1321) 


$$$$
C47219-P40
     RDKit          3D

 37 39  0  0  0  0  0  0  0  0999 V2000
    5.9719   -3.9914   24.3118 O   0  0  0  0  0  0  0  0  0  0  0  0
    6.2183   -5.0846   23.8434 C   0  0  0  0  0  0  0  0  0  0  0  0
    5.8472   -6.3553   24.6494 C   0  0  0  0  0  0  0  0  0  0  0  0
    5.7653   -6.1079   26.1036 N   0  0  0  0  0  0  0  0  0  0  0  0
    6.8865   -6.1283   26.9026 C   0  0  0  0  0  0  0  0  0  0  0  0
    6.5123   -5.8514   28.1935 C   0  0  0  0  0  0  0  0  0  0  0  0
    5.1087   -5.6755   28.2085 C   0  0  0  0  0  0  0  0  0  0  0  0
    4.1995   -5.3570   29.2372 C   0  0  0  0  0  0  0  0  0  0  0  0
    2.8459   -5.2938   28.9530 C   0  0  0  0  0  0  0  0  0  0  0  0
    1.9621   -5.0778   29.9405 F   0  0  0  0  0  0  0  0  0  0  0  0
    2.3941   -5.4814   27.6603 C   0  0  0  0  0  0  0  0  0  0  0  0
    3.2768   -5.7806   26.6089 C   0  0  0  0  0  0  0  0  0  0  0  0
    4.6469   -5.8738   26.8982 C   0  0  0  0  0  0  0  0  0  0  0  0
    6.9304   -5.4861   22.4877 N   0  0  0  0  0  0  0  0  0  0  0  0
    7.8067   -4.3803   21.0997 C   0  0  0  0  0  0  0  0  0  0  0  0
    9.8295   -4.9796   20.7405 C   0  0  0  0  0  0  0  0  0  0  0  0
    9.9964   -5.5411   19.4806 O   0  0  0  0  0  0  0  0  0  0  0  0
   11.3831   -4.4102   21.4093 C   0  0  0  0  0  0  0  0  0  0  0  0
   12.6363   -4.6686   20.8558 C   0  0  0  0  0  0  0  0  0  0  0  0
   13.5217   -3.9605   21.6117 N   0  0  0  0  0  0  0  0  0  0  0  0
   12.8143   -3.3764   22.6173 C   0  0  0  0  0  0  0  0  0  0  0  0
   11.5309   -3.6418   22.5284 N   0  0  0  0  0  0  0  0  0  0  0  0
    4.8919   -6.7708   24.3304 H   0  0  0  0  0  0  0  0  0  0  0  0
    6.6257   -7.1122   24.5214 H   0  0  0  0  0  0  0  0  0  0  0  0
    7.8675   -6.2956   26.4780 H   0  0  0  0  0  0  0  0  0  0  0  0
    7.1874   -5.7655   29.0346 H   0  0  0  0  0  0  0  0  0  0  0  0
    4.5599   -5.1478   30.2363 H   0  0  0  0  0  0  0  0  0  0  0  0
    1.3366   -5.3685   27.4787 H   0  0  0  0  0  0  0  0  0  0  0  0
    2.9153   -5.9323   25.6011 H   0  0  0  0  0  0  0  0  0  0  0  0
    6.8916   -6.4973   22.3718 H   0  0  0  0  0  0  0  0  0  0  0  0
    7.2450   -4.5813   20.1485 H   0  0  0  0  0  0  0  0  0  0  0  0
    7.5302   -3.3513   21.3489 H   0  0  0  0  0  0  0  0  0  0  0  0
   10.2529   -5.9111   21.1827 H   0  0  0  0  0  0  0  0  0  0  0  0
   10.6906   -4.9837   19.0814 H   0  0  0  0  0  0  0  0  0  0  0  0
   12.9496   -5.2172   19.9809 H   0  0  0  0  0  0  0  0  0  0  0  0
   14.5202   -3.8961   21.4702 H   0  0  0  0  0  0  0  0  0  0  0  0
   13.2748   -2.7600   23.3783 H   0  0  0  0  0  0  0  0  0  0  0  0
  1  2  2  0
  2  3  1  0
  3  4  1  0
  4  5  1  0
  5  6  2  0
  6  7  1  0
  7  8  2  0
  8  9  1  0
  9 10  1  0
  9 11  2  0
 11 12  1  0
 12 13  2  0
  2 14  1  0
 14 15  1  0
 15 16  1  0
 16 17  1  0
 16 18  1  0
 18 19  2  0
 19 20  1  0
 20 21  1  0
 21 22  2  0
 13  4  1  0
 22 18  1  0
 13  7  1  0
  3 23  1  0
  3 24  1  0
  5 25  1  0
  6 26  1  0
  8 27  1  0
 11 28  1  0
 12 29  1  0
 14 30  1  0
 15 31  1  0
 15 32  1  0
 16 33  1  0
 17 34  1  0
 19 35  1  0
 20 36  1  0
 21 37  1  0
M  END
>  <Energy>  (1322) 
282.48270862128481

>  <compound_id>  (1322) 
47219

>  <target_id>  (1322) 
1

>  <reference_id>  (1322) 
40

>  <inspiration_ids>  (1322) 
[40, 80]

>  <energy_score>  (1322) 
200.88121634420236

>  <distance_score>  (1322) 
5.406862273277456

>  <path>  (1322) 
/opt/xchem-fragalysis-2/maxwin/BulkDock/SCRATCH/511023/C47219-P40/C47219-P40.minimised.mol

>  <scratch_subdir>  (1322) 
/opt/xchem-fragalysis-2/maxwin/BulkDock/SCRATCH/511023/C47219-P40

>  <fragmenstein_runtime>  (1322) 
8.611315727233887

>  <fragmenstein_outcome>  (1322) 
too moved

>  <fragmenstein_mode>  (1322) 
expansion

>  <fragmenstein_error>  (1322) 


$$$$
C47219-P80
     RDKit          3D

 37 39  0  0  0  0  0  0  0  0999 V2000
    5.2147   -3.1359   20.3801 O   0  0  0  0  0  0  0  0  0  0  0  0
    5.9216   -2.9867   21.3163 C   0  0  0  0  0  0  0  0  0  0  0  0
    5.2304   -1.9852   22.9269 C   0  0  0  0  0  0  0  0  0  0  0  0
    4.5088   -2.0779   24.4972 N   0  0  0  0  0  0  0  0  0  0  0  0
    3.4220   -2.8304   24.6460 C   0  0  0  0  0  0  0  0  0  0  0  0
    3.0934   -2.9572   25.9670 C   0  0  0  0  0  0  0  0  0  0  0  0
    3.8828   -2.1734   26.7401 C   0  0  0  0  0  0  0  0  0  0  0  0
    3.8213   -2.0050   28.1367 C   0  0  0  0  0  0  0  0  0  0  0  0
    4.4588   -0.9406   28.6971 C   0  0  0  0  0  0  0  0  0  0  0  0
    4.3550   -0.7445   30.0190 F   0  0  0  0  0  0  0  0  0  0  0  0
    5.0935   -0.0496   27.8654 C   0  0  0  0  0  0  0  0  0  0  0  0
    5.1519   -0.2620   26.4561 C   0  0  0  0  0  0  0  0  0  0  0  0
    4.6273   -1.4116   25.8172 C   0  0  0  0  0  0  0  0  0  0  0  0
    7.6725   -3.6471   21.3149 N   0  0  0  0  0  0  0  0  0  0  0  0
    8.4724   -4.5590   20.2265 C   0  0  0  0  0  0  0  0  0  0  0  0
   10.2103   -5.4452   19.5353 C   0  0  0  0  0  0  0  0  0  0  0  0
   11.3208   -5.5693   20.4416 O   0  0  0  0  0  0  0  0  0  0  0  0
   11.4863   -4.7511   18.1091 C   0  0  0  0  0  0  0  0  0  0  0  0
   11.5310   -4.2529   16.8015 C   0  0  0  0  0  0  0  0  0  0  0  0
   12.8049   -3.7782   16.5897 N   0  0  0  0  0  0  0  0  0  0  0  0
   13.5403   -4.0030   17.7070 C   0  0  0  0  0  0  0  0  0  0  0  0
   12.8248   -4.5879   18.6347 N   0  0  0  0  0  0  0  0  0  0  0  0
    4.7404   -1.1199   22.5440 H   0  0  0  0  0  0  0  0  0  0  0  0
    5.8903   -1.6164   23.6362 H   0  0  0  0  0  0  0  0  0  0  0  0
    2.9302   -3.1392   23.7405 H   0  0  0  0  0  0  0  0  0  0  0  0
    2.2798   -3.4946   26.4198 H   0  0  0  0  0  0  0  0  0  0  0  0
    3.2105   -2.6551   28.7519 H   0  0  0  0  0  0  0  0  0  0  0  0
    5.5328    0.8493   28.2877 H   0  0  0  0  0  0  0  0  0  0  0  0
    5.5595    0.5689   25.9284 H   0  0  0  0  0  0  0  0  0  0  0  0
    8.0460   -3.5141   22.1547 H   0  0  0  0  0  0  0  0  0  0  0  0
    7.4786   -4.8902   19.8267 H   0  0  0  0  0  0  0  0  0  0  0  0
    8.9143   -3.7031   19.9761 H   0  0  0  0  0  0  0  0  0  0  0  0
    9.7388   -6.2864   19.1645 H   0  0  0  0  0  0  0  0  0  0  0  0
   11.8985   -4.8083   20.2032 H   0  0  0  0  0  0  0  0  0  0  0  0
   10.8249   -4.1010   16.0053 H   0  0  0  0  0  0  0  0  0  0  0  0
   13.1313   -3.3260   15.7476 H   0  0  0  0  0  0  0  0  0  0  0  0
   14.5814   -3.7219   17.7903 H   0  0  0  0  0  0  0  0  0  0  0  0
  1  2  2  0
  2  3  1  0
  3  4  1  0
  4  5  1  0
  5  6  2  0
  6  7  1  0
  7  8  2  0
  8  9  1  0
  9 10  1  0
  9 11  2  0
 11 12  1  0
 12 13  2  0
  2 14  1  0
 14 15  1  0
 15 16  1  0
 16 17  1  0
 16 18  1  0
 18 19  2  0
 19 20  1  0
 20 21  1  0
 21 22  2  0
 13  4  1  0
 22 18  1  0
 13  7  1  0
  3 23  1  0
  3 24  1  0
  5 25  1  0
  6 26  1  0
  8 27  1  0
 11 28  1  0
 12 29  1  0
 14 30  1  0
 15 31  1  0
 15 32  1  0
 16 33  1  0
 17 34  1  0
 19 35  1  0
 20 36  1  0
 21 37  1  0
M  END
>  <Energy>  (1323) 
538.03286687530431

>  <compound_id>  (1323) 
47219

>  <target_id>  (1323) 
1

>  <reference_id>  (1323) 
80

>  <inspiration_ids>  (1323) 
[40, 80]

>  <energy_score>  (1323) 
456.4313745982197

>  <distance_score>  (1323) 
5.415350277873426

>  <path>  (1323) 
/opt/xchem-fragalysis-2/maxwin/BulkDock/SCRATCH/511023/C47219-P80/C47219-P80.minimised.mol

>  <scratch_subdir>  (1323) 
/opt/xchem-fragalysis-2/maxwin/BulkDock/SCRATCH/511023/C47219-P80

>  <fragmenstein_runtime>  (1323) 
11.347642421722412

>  <fragmenstein_outcome>  (1323) 
too moved

>  <fragmenstein_mode>  (1323) 
expansion

>  <fragmenstein_error>  (1323) 


$$$$
C47220-P40
     RDKit          3D

 37 39  0  0  0  0  0  0  0  0999 V2000
    5.9584   -3.7356   24.1616 O   0  0  0  0  0  0  0  0  0  0  0  0
    6.2246   -4.8624   23.7847 C   0  0  0  0  0  0  0  0  0  0  0  0
    5.9186   -6.0841   24.6547 C   0  0  0  0  0  0  0  0  0  0  0  0
    4.7427   -6.1234   25.5419 N   0  0  0  0  0  0  0  0  0  0  0  0
    4.0243   -7.3000   25.6340 C   0  0  0  0  0  0  0  0  0  0  0  0
    3.2024   -7.2206   26.7210 C   0  0  0  0  0  0  0  0  0  0  0  0
    3.3086   -5.9296   27.2687 C   0  0  0  0  0  0  0  0  0  0  0  0
    2.6529   -5.2933   28.3434 C   0  0  0  0  0  0  0  0  0  0  0  0
    3.0145   -3.9930   28.6897 C   0  0  0  0  0  0  0  0  0  0  0  0
    4.0295   -3.3487   27.9911 C   0  0  0  0  0  0  0  0  0  0  0  0
    4.4788   -1.7505   28.4564 Cl  0  0  0  0  0  0  0  0  0  0  0  0
    4.7003   -3.9652   26.9241 C   0  0  0  0  0  0  0  0  0  0  0  0
    4.3120   -5.2619   26.5450 C   0  0  0  0  0  0  0  0  0  0  0  0
    6.9977   -5.3678   22.4703 N   0  0  0  0  0  0  0  0  0  0  0  0
    7.9324   -4.3585   21.0275 C   0  0  0  0  0  0  0  0  0  0  0  0
   10.0038   -5.0140   20.7827 C   0  0  0  0  0  0  0  0  0  0  0  0
   10.5275   -6.4573   21.0959 O   0  0  0  0  0  0  0  0  0  0  0  0
   11.7058   -4.2642   21.0747 C   0  0  0  0  0  0  0  0  0  0  0  0
   12.8476   -4.4498   20.2938 C   0  0  0  0  0  0  0  0  0  0  0  0
   13.8259   -3.7271   20.9121 N   0  0  0  0  0  0  0  0  0  0  0  0
   13.2990   -3.2286   22.0672 C   0  0  0  0  0  0  0  0  0  0  0  0
   12.0377   -3.5655   22.2165 N   0  0  0  0  0  0  0  0  0  0  0  0
    6.7798   -6.2403   25.3154 H   0  0  0  0  0  0  0  0  0  0  0  0
    5.8360   -6.9544   24.0071 H   0  0  0  0  0  0  0  0  0  0  0  0
    4.2088   -8.1217   24.9486 H   0  0  0  0  0  0  0  0  0  0  0  0
    2.5807   -8.0271   27.0608 H   0  0  0  0  0  0  0  0  0  0  0  0
    1.8734   -5.8025   28.8999 H   0  0  0  0  0  0  0  0  0  0  0  0
    2.5100   -3.4887   29.5093 H   0  0  0  0  0  0  0  0  0  0  0  0
    5.4950   -3.4368   26.4052 H   0  0  0  0  0  0  0  0  0  0  0  0
    6.9651   -6.3853   22.4279 H   0  0  0  0  0  0  0  0  0  0  0  0
    7.6331   -3.3385   21.2761 H   0  0  0  0  0  0  0  0  0  0  0  0
    7.3237   -4.5657   20.1129 H   0  0  0  0  0  0  0  0  0  0  0  0
   10.4221   -4.7782   21.7381 H   0  0  0  0  0  0  0  0  0  0  0  0
   11.4824   -6.3726   21.2848 H   0  0  0  0  0  0  0  0  0  0  0  0
   13.0246   -4.9588   19.3591 H   0  0  0  0  0  0  0  0  0  0  0  0
   14.7783   -3.6129   20.5944 H   0  0  0  0  0  0  0  0  0  0  0  0
   13.8735   -2.6301   22.7619 H   0  0  0  0  0  0  0  0  0  0  0  0
  1  2  2  0
  2  3  1  0
  3  4  1  0
  4  5  1  0
  5  6  2  0
  6  7  1  0
  7  8  2  0
  8  9  1  0
  9 10  2  0
 10 11  1  0
 10 12  1  0
 12 13  2  0
  2 14  1  0
 14 15  1  0
 15 16  1  0
 16 17  1  0
 16 18  1  0
 18 19  2  0
 19 20  1  0
 20 21  1  0
 21 22  2  0
 13  4  1  0
 22 18  1  0
 13  7  1  0
  3 23  1  0
  3 24  1  0
  5 25  1  0
  6 26  1  0
  8 27  1  0
  9 28  1  0
 12 29  1  0
 14 30  1  0
 15 31  1  0
 15 32  1  0
 16 33  1  0
 17 34  1  0
 19 35  1  0
 20 36  1  0
 21 37  1  0
M  END
>  <Energy>  (1324) 
386.19975856033011

>  <compound_id>  (1324) 
47220

>  <target_id>  (1324) 
1

>  <reference_id>  (1324) 
40

>  <inspiration_ids>  (1324) 
[40, 80]

>  <energy_score>  (1324) 
307.1094282590436

>  <distance_score>  (1324) 
4.970328696685032

>  <path>  (1324) 
/opt/xchem-fragalysis-2/maxwin/BulkDock/SCRATCH/511023/C47220-P40/C47220-P40.minimised.mol

>  <scratch_subdir>  (1324) 
/opt/xchem-fragalysis-2/maxwin/BulkDock/SCRATCH/511023/C47220-P40

>  <fragmenstein_runtime>  (1324) 
7.603959083557129

>  <fragmenstein_outcome>  (1324) 
too moved

>  <fragmenstein_mode>  (1324) 
expansion

>  <fragmenstein_error>  (1324) 


$$$$
C47220-P80
     RDKit          3D

 37 39  0  0  0  0  0  0  0  0999 V2000
    5.3587   -1.9625   22.2239 O   0  0  0  0  0  0  0  0  0  0  0  0
    5.8948   -2.5969   23.1107 C   0  0  0  0  0  0  0  0  0  0  0  0
    5.4788   -2.0527   24.7579 C   0  0  0  0  0  0  0  0  0  0  0  0
    4.4656   -2.1163   25.8473 N   0  0  0  0  0  0  0  0  0  0  0  0
    3.2931   -2.7389   25.7823 C   0  0  0  0  0  0  0  0  0  0  0  0
    2.6413   -2.6789   26.9932 C   0  0  0  0  0  0  0  0  0  0  0  0
    3.5017   -2.0625   27.9042 C   0  0  0  0  0  0  0  0  0  0  0  0
    3.4065   -1.8233   29.2877 C   0  0  0  0  0  0  0  0  0  0  0  0
    4.4709   -1.2086   29.9386 C   0  0  0  0  0  0  0  0  0  0  0  0
    5.5971   -0.8306   29.2138 C   0  0  0  0  0  0  0  0  0  0  0  0
    6.9073   -0.0688   30.0406 Cl  0  0  0  0  0  0  0  0  0  0  0  0
    5.7070   -1.0513   27.8327 C   0  0  0  0  0  0  0  0  0  0  0  0
    4.6397   -1.6850   27.1785 C   0  0  0  0  0  0  0  0  0  0  0  0
    7.2270   -3.9796   22.7997 N   0  0  0  0  0  0  0  0  0  0  0  0
    8.1454   -4.6027   21.0678 C   0  0  0  0  0  0  0  0  0  0  0  0
   10.0535   -5.4691   20.3912 C   0  0  0  0  0  0  0  0  0  0  0  0
   10.6215   -7.2171   20.9142 O   0  0  0  0  0  0  0  0  0  0  0  0
   11.7997   -4.8180   20.6882 C   0  0  0  0  0  0  0  0  0  0  0  0
   12.8523   -4.7113   19.7712 C   0  0  0  0  0  0  0  0  0  0  0  0
   13.8601   -4.0682   20.4320 N   0  0  0  0  0  0  0  0  0  0  0  0
   13.4627   -3.9096   21.7229 C   0  0  0  0  0  0  0  0  0  0  0  0
   12.2599   -4.3933   21.9213 N   0  0  0  0  0  0  0  0  0  0  0  0
    6.3968   -1.9367   25.3430 H   0  0  0  0  0  0  0  0  0  0  0  0
    5.1669   -1.0450   24.4472 H   0  0  0  0  0  0  0  0  0  0  0  0
    3.0627   -3.1793   24.8357 H   0  0  0  0  0  0  0  0  0  0  0  0
    1.6709   -3.0889   27.2250 H   0  0  0  0  0  0  0  0  0  0  0  0
    2.5198   -2.1214   29.8385 H   0  0  0  0  0  0  0  0  0  0  0  0
    4.4132   -1.0220   31.0067 H   0  0  0  0  0  0  0  0  0  0  0  0
    6.6035   -0.7639   27.2958 H   0  0  0  0  0  0  0  0  0  0  0  0
    7.4652   -4.4228   23.6754 H   0  0  0  0  0  0  0  0  0  0  0  0
    8.3364   -3.6097   20.9047 H   0  0  0  0  0  0  0  0  0  0  0  0
    7.4481   -4.8250   20.2333 H   0  0  0  0  0  0  0  0  0  0  0  0
   10.0203   -5.6723   19.3441 H   0  0  0  0  0  0  0  0  0  0  0  0
   11.6106   -7.1426   20.9491 H   0  0  0  0  0  0  0  0  0  0  0  0
   12.9213   -4.8990   18.7123 H   0  0  0  0  0  0  0  0  0  0  0  0
   14.7371   -3.7519   20.0423 H   0  0  0  0  0  0  0  0  0  0  0  0
   14.0784   -3.4287   22.4715 H   0  0  0  0  0  0  0  0  0  0  0  0
  1  2  2  0
  2  3  1  0
  3  4  1  0
  4  5  1  0
  5  6  2  0
  6  7  1  0
  7  8  2  0
  8  9  1  0
  9 10  2  0
 10 11  1  0
 10 12  1  0
 12 13  2  0
  2 14  1  0
 14 15  1  0
 15 16  1  0
 16 17  1  0
 16 18  1  0
 18 19  2  0
 19 20  1  0
 20 21  1  0
 21 22  2  0
 13  4  1  0
 22 18  1  0
 13  7  1  0
  3 23  1  0
  3 24  1  0
  5 25  1  0
  6 26  1  0
  8 27  1  0
  9 28  1  0
 12 29  1  0
 14 30  1  0
 15 31  1  0
 15 32  1  0
 16 33  1  0
 17 34  1  0
 19 35  1  0
 20 36  1  0
 21 37  1  0
M  END
>  <Energy>  (1325) 
553.91093604076025

>  <compound_id>  (1325) 
47220

>  <target_id>  (1325) 
1

>  <reference_id>  (1325) 
80

>  <inspiration_ids>  (1325) 
[40, 80]

>  <energy_score>  (1325) 
474.82060573947774

>  <distance_score>  (1325) 
5.856246116500413

>  <path>  (1325) 
/opt/xchem-fragalysis-2/maxwin/BulkDock/SCRATCH/511023/C47220-P80/C47220-P80.minimised.mol

>  <scratch_subdir>  (1325) 
/opt/xchem-fragalysis-2/maxwin/BulkDock/SCRATCH/511023/C47220-P80

>  <fragmenstein_runtime>  (1325) 
5.695453643798828

>  <fragmenstein_outcome>  (1325) 
too moved

>  <fragmenstein_mode>  (1325) 
expansion

>  <fragmenstein_error>  (1325) 


$$$$
C47221-P40
     RDKit          3D

 33 35  0  0  0  0  0  0  0  0999 V2000
    5.9090   -3.4091   24.0686 O   0  0  0  0  0  0  0  0  0  0  0  0
    6.2095   -4.5750   23.8285 C   0  0  0  0  0  0  0  0  0  0  0  0
    6.9645   -5.1992   22.6038 N   0  0  0  0  0  0  0  0  0  0  0  0
    7.8323   -4.3516   21.0515 C   0  0  0  0  0  0  0  0  0  0  0  0
    9.8315   -4.9991   20.6973 C   0  0  0  0  0  0  0  0  0  0  0  0
   11.3963   -4.5164   21.3629 C   0  0  0  0  0  0  0  0  0  0  0  0
   12.6158   -4.7017   20.7140 C   0  0  0  0  0  0  0  0  0  0  0  0
   13.5589   -4.1474   21.5221 N   0  0  0  0  0  0  0  0  0  0  0  0
   12.9234   -3.7254   22.6498 C   0  0  0  0  0  0  0  0  0  0  0  0
   11.6287   -3.9429   22.5913 N   0  0  0  0  0  0  0  0  0  0  0  0
    5.8448   -5.4405   24.9637 C   0  0  0  0  0  0  0  0  0  0  0  0
    5.1494   -6.6218   25.1334 C   0  0  0  0  0  0  0  0  0  0  0  0
    4.3930   -6.4605   26.3507 C   0  0  0  0  0  0  0  0  0  0  0  0
    3.2879   -7.1205   26.9089 C   0  0  0  0  0  0  0  0  0  0  0  0
    2.6388   -6.5653   28.0273 C   0  0  0  0  0  0  0  0  0  0  0  0
    3.1180   -5.4138   28.6416 C   0  0  0  0  0  0  0  0  0  0  0  0
    4.2468   -4.7705   28.1397 C   0  0  0  0  0  0  0  0  0  0  0  0
    4.8356   -5.3074   26.9868 C   0  0  0  0  0  0  0  0  0  0  0  0
    5.8646   -4.8330   26.2156 N   0  0  0  0  0  0  0  0  0  0  0  0
    6.9641   -6.2113   22.6910 H   0  0  0  0  0  0  0  0  0  0  0  0
    7.2234   -4.5951   20.1417 H   0  0  0  0  0  0  0  0  0  0  0  0
    7.5977   -3.3134   21.2716 H   0  0  0  0  0  0  0  0  0  0  0  0
    9.9344   -5.3555   19.6665 H   0  0  0  0  0  0  0  0  0  0  0  0
   10.2148   -6.0084   21.0081 H   0  0  0  0  0  0  0  0  0  0  0  0
   12.8668   -5.1000   19.7433 H   0  0  0  0  0  0  0  0  0  0  0  0
   14.5501   -4.0902   21.3343 H   0  0  0  0  0  0  0  0  0  0  0  0
   13.4488   -3.2712   23.4788 H   0  0  0  0  0  0  0  0  0  0  0  0
    4.9294   -7.3446   24.3586 H   0  0  0  0  0  0  0  0  0  0  0  0
    2.9196   -8.0137   26.4160 H   0  0  0  0  0  0  0  0  0  0  0  0
    1.7349   -7.0231   28.4151 H   0  0  0  0  0  0  0  0  0  0  0  0
    2.6049   -4.9953   29.5040 H   0  0  0  0  0  0  0  0  0  0  0  0
    4.6206   -3.8555   28.5886 H   0  0  0  0  0  0  0  0  0  0  0  0
    6.2873   -3.9203   26.3278 H   0  0  0  0  0  0  0  0  0  0  0  0
  1  2  2  0
  2  3  1  0
  3  4  1  0
  4  5  1  0
  5  6  1  0
  6  7  2  0
  7  8  1  0
  8  9  1  0
  9 10  2  0
  2 11  1  0
 11 12  2  0
 12 13  1  0
 13 14  2  0
 14 15  1  0
 15 16  2  0
 16 17  1  0
 17 18  2  0
 18 19  1  0
 10  6  1  0
 19 11  1  0
 18 13  1  0
  3 20  1  0
  4 21  1  0
  4 22  1  0
  5 23  1  0
  5 24  1  0
  7 25  1  0
  8 26  1  0
  9 27  1  0
 12 28  1  0
 14 29  1  0
 15 30  1  0
 16 31  1  0
 17 32  1  0
 19 33  1  0
M  END
>  <Energy>  (1326) 
228.56013743214334

>  <compound_id>  (1326) 
47221

>  <target_id>  (1326) 
1

>  <reference_id>  (1326) 
40

>  <inspiration_ids>  (1326) 
[40, 80]

>  <energy_score>  (1326) 
232.12204546499242

>  <distance_score>  (1326) 
7.215739558041202

>  <path>  (1326) 
/opt/xchem-fragalysis-2/maxwin/BulkDock/SCRATCH/511023/C47221-P40/C47221-P40.minimised.mol

>  <scratch_subdir>  (1326) 
/opt/xchem-fragalysis-2/maxwin/BulkDock/SCRATCH/511023/C47221-P40

>  <fragmenstein_runtime>  (1326) 
6.0288004875183105

>  <fragmenstein_outcome>  (1326) 
too moved

>  <fragmenstein_mode>  (1326) 
expansion

>  <fragmenstein_error>  (1326) 


$$$$
C47221-P80
     RDKit          3D

 33 35  0  0  0  0  0  0  0  0999 V2000
    4.9733   -1.9551   22.9888 O   0  0  0  0  0  0  0  0  0  0  0  0
    5.5688   -2.3715   23.9849 C   0  0  0  0  0  0  0  0  0  0  0  0
    6.8198   -3.6921   24.0240 N   0  0  0  0  0  0  0  0  0  0  0  0
    7.6072   -4.6921   22.6388 C   0  0  0  0  0  0  0  0  0  0  0  0
    8.4046   -4.6400   20.7326 C   0  0  0  0  0  0  0  0  0  0  0  0
   10.3866   -5.2819   20.4283 C   0  0  0  0  0  0  0  0  0  0  0  0
   11.7153   -5.4525   19.7833 C   0  0  0  0  0  0  0  0  0  0  0  0
   12.8345   -5.5394   20.6417 N   0  0  0  0  0  0  0  0  0  0  0  0
   12.6796   -4.4422   21.3994 C   0  0  0  0  0  0  0  0  0  0  0  0
   11.4099   -4.1738   21.3153 N   0  0  0  0  0  0  0  0  0  0  0  0
    5.1036   -1.7750   25.2922 C   0  0  0  0  0  0  0  0  0  0  0  0
    3.7850   -1.4124   25.5427 C   0  0  0  0  0  0  0  0  0  0  0  0
    3.5322   -1.5353   26.9342 C   0  0  0  0  0  0  0  0  0  0  0  0
    2.3695   -1.6085   27.7256 C   0  0  0  0  0  0  0  0  0  0  0  0
    2.4838   -1.8515   29.0976 C   0  0  0  0  0  0  0  0  0  0  0  0
    3.7367   -1.9924   29.6879 C   0  0  0  0  0  0  0  0  0  0  0  0
    4.9068   -1.9033   28.9229 C   0  0  0  0  0  0  0  0  0  0  0  0
    4.7701   -1.6841   27.5445 C   0  0  0  0  0  0  0  0  0  0  0  0
    5.7195   -1.6461   26.5298 N   0  0  0  0  0  0  0  0  0  0  0  0
    7.1950   -3.7652   24.9455 H   0  0  0  0  0  0  0  0  0  0  0  0
    7.2945   -3.7936   22.2761 H   0  0  0  0  0  0  0  0  0  0  0  0
    7.2090   -5.6845   22.8461 H   0  0  0  0  0  0  0  0  0  0  0  0
    8.4759   -3.6197   20.7694 H   0  0  0  0  0  0  0  0  0  0  0  0
    7.5791   -4.8762   20.0533 H   0  0  0  0  0  0  0  0  0  0  0  0
   12.0694   -4.9927   18.8552 H   0  0  0  0  0  0  0  0  0  0  0  0
   13.7562   -5.7998   20.3333 H   0  0  0  0  0  0  0  0  0  0  0  0
   13.4457   -3.9031   21.9384 H   0  0  0  0  0  0  0  0  0  0  0  0
    3.0457   -1.3520   24.7613 H   0  0  0  0  0  0  0  0  0  0  0  0
    1.3905   -1.5172   27.2673 H   0  0  0  0  0  0  0  0  0  0  0  0
    1.5847   -1.9242   29.7037 H   0  0  0  0  0  0  0  0  0  0  0  0
    3.8087   -2.1724   30.7576 H   0  0  0  0  0  0  0  0  0  0  0  0
    5.8827   -2.0263   29.3791 H   0  0  0  0  0  0  0  0  0  0  0  0
    6.6720   -1.9357   26.6784 H   0  0  0  0  0  0  0  0  0  0  0  0
  1  2  2  0
  2  3  1  0
  3  4  1  0
  4  5  1  0
  5  6  1  0
  6  7  2  0
  7  8  1  0
  8  9  1  0
  9 10  2  0
  2 11  1  0
 11 12  2  0
 12 13  1  0
 13 14  2  0
 14 15  1  0
 15 16  2  0
 16 17  1  0
 17 18  2  0
 18 19  1  0
 10  6  1  0
 19 11  1  0
 18 13  1  0
  3 20  1  0
  4 21  1  0
  4 22  1  0
  5 23  1  0
  5 24  1  0
  7 25  1  0
  8 26  1  0
  9 27  1  0
 12 28  1  0
 14 29  1  0
 15 30  1  0
 16 31  1  0
 17 32  1  0
 19 33  1  0
M  END
>  <Energy>  (1327) 
463.80061609788754

>  <compound_id>  (1327) 
47221

>  <target_id>  (1327) 
1

>  <reference_id>  (1327) 
80

>  <inspiration_ids>  (1327) 
[40, 80]

>  <energy_score>  (1327) 
467.362524130742

>  <distance_score>  (1327) 
7.503512816283679

>  <path>  (1327) 
/opt/xchem-fragalysis-2/maxwin/BulkDock/SCRATCH/511023/C47221-P80/C47221-P80.minimised.mol

>  <scratch_subdir>  (1327) 
/opt/xchem-fragalysis-2/maxwin/BulkDock/SCRATCH/511023/C47221-P80

>  <fragmenstein_runtime>  (1327) 
8.0903160572052

>  <fragmenstein_outcome>  (1327) 
too moved

>  <fragmenstein_mode>  (1327) 
expansion

>  <fragmenstein_error>  (1327) 


$$$$
C47222-P40
     RDKit          3D

 37 39  0  0  0  0  0  0  0  0999 V2000
    0.3069   -4.8721   31.1661 C   0  0  0  0  0  0  0  0  0  0  0  0
    0.3103   -6.1516   29.8775 S   0  0  0  0  0  0  0  0  0  0  0  0
    1.6403   -5.6155   28.8028 C   0  0  0  0  0  0  0  0  0  0  0  0
    2.0861   -4.3053   28.6972 C   0  0  0  0  0  0  0  0  0  0  0  0
    3.1216   -3.9755   27.8152 C   0  0  0  0  0  0  0  0  0  0  0  0
    3.7055   -4.9703   27.0104 C   0  0  0  0  0  0  0  0  0  0  0  0
    4.7603   -4.9778   26.0841 C   0  0  0  0  0  0  0  0  0  0  0  0
    4.9350   -6.2630   25.5769 C   0  0  0  0  0  0  0  0  0  0  0  0
    6.0611   -6.5622   24.6908 C   0  0  0  0  0  0  0  0  0  0  0  0
    7.1381   -6.6094   25.2116 O   0  0  0  0  0  0  0  0  0  0  0  0
    5.6822   -6.6519   23.2966 N   0  0  0  0  0  0  0  0  0  0  0  0
    6.5405   -6.7278   22.0234 C   0  0  0  0  0  0  0  0  0  0  0  0
    7.2693   -7.2438   20.1550 C   0  0  0  0  0  0  0  0  0  0  0  0
    9.3557   -7.4936   20.2388 C   0  0  0  0  0  0  0  0  0  0  0  0
   10.3663   -6.6027   20.9850 N   0  0  0  0  0  0  0  0  0  0  0  0
   11.3170   -7.3180   21.6646 C   0  0  0  0  0  0  0  0  0  0  0  0
   11.0904   -8.6163   21.3822 C   0  0  0  0  0  0  0  0  0  0  0  0
   10.1347   -8.6724   20.2743 N   0  0  0  0  0  0  0  0  0  0  0  0
    3.9612   -7.0360   26.1557 N   0  0  0  0  0  0  0  0  0  0  0  0
    3.2405   -6.2767   27.0794 C   0  0  0  0  0  0  0  0  0  0  0  0
    2.2145   -6.6006   27.9799 C   0  0  0  0  0  0  0  0  0  0  0  0
   -0.0530   -3.9209   30.7658 H   0  0  0  0  0  0  0  0  0  0  0  0
   -0.3722   -5.1815   31.9655 H   0  0  0  0  0  0  0  0  0  0  0  0
    1.3061   -4.7468   31.5919 H   0  0  0  0  0  0  0  0  0  0  0  0
    1.6490   -3.5019   29.2823 H   0  0  0  0  0  0  0  0  0  0  0  0
    3.4794   -2.9496   27.7571 H   0  0  0  0  0  0  0  0  0  0  0  0
    5.3953   -4.1375   25.8191 H   0  0  0  0  0  0  0  0  0  0  0  0
    4.6951   -6.6571   23.2309 H   0  0  0  0  0  0  0  0  0  0  0  0
    6.9787   -7.2737   22.8113 H   0  0  0  0  0  0  0  0  0  0  0  0
    6.8927   -5.7042   22.1702 H   0  0  0  0  0  0  0  0  0  0  0  0
    7.1075   -6.4035   19.4069 H   0  0  0  0  0  0  0  0  0  0  0  0
    6.8768   -7.9346   19.4080 H   0  0  0  0  0  0  0  0  0  0  0  0
   12.0635   -6.8497   22.2917 H   0  0  0  0  0  0  0  0  0  0  0  0
   11.6160   -9.5169   21.6805 H   0  0  0  0  0  0  0  0  0  0  0  0
    9.9419   -9.4941   19.7130 H   0  0  0  0  0  0  0  0  0  0  0  0
    3.8524   -8.0256   25.9796 H   0  0  0  0  0  0  0  0  0  0  0  0
    1.8175   -7.6004   28.0003 H   0  0  0  0  0  0  0  0  0  0  0  0
  1  2  1  0
  2  3  1  0
  3  4  2  0
  4  5  1  0
  5  6  2  0
  6  7  1  0
  7  8  2  0
  8  9  1  0
  9 10  2  0
  9 11  1  0
 11 12  1  0
 12 13  1  0
 13 14  1  0
 14 15  2  0
 15 16  1  0
 16 17  2  0
 17 18  1  0
  8 19  1  0
 19 20  1  0
 20 21  2  0
 21  3  1  0
 20  6  1  0
 18 14  1  0
  1 22  1  0
  1 23  1  0
  1 24  1  0
  4 25  1  0
  5 26  1  0
  7 27  1  0
 11 28  1  0
 12 29  1  0
 12 30  1  0
 13 31  1  0
 13 32  1  0
 16 33  1  0
 17 34  1  0
 18 35  1  0
 19 36  1  0
 21 37  1  0
M  END
>  <Energy>  (1328) 
306.20291333579672

>  <compound_id>  (1328) 
47222

>  <target_id>  (1328) 
1

>  <reference_id>  (1328) 
40

>  <inspiration_ids>  (1328) 
[40, 80]

>  <energy_score>  (1328) 
297.1943735288273

>  <distance_score>  (1328) 
7.35345399286639

>  <path>  (1328) 
/opt/xchem-fragalysis-2/maxwin/BulkDock/SCRATCH/511023/C47222-P40/C47222-P40.minimised.mol

>  <scratch_subdir>  (1328) 
/opt/xchem-fragalysis-2/maxwin/BulkDock/SCRATCH/511023/C47222-P40

>  <fragmenstein_runtime>  (1328) 
7.546781778335571

>  <fragmenstein_outcome>  (1328) 
too moved

>  <fragmenstein_mode>  (1328) 
expansion

>  <fragmenstein_error>  (1328) 


$$$$
C47222-P80
     RDKit          3D

 37 39  0  0  0  0  0  0  0  0999 V2000
    1.8522   -4.4692   31.7576 C   0  0  0  0  0  0  0  0  0  0  0  0
    2.3687   -2.7356   31.9105 S   0  0  0  0  0  0  0  0  0  0  0  0
    2.6461   -2.3430   30.1899 C   0  0  0  0  0  0  0  0  0  0  0  0
    1.6215   -2.4403   29.2511 C   0  0  0  0  0  0  0  0  0  0  0  0
    1.8561   -2.1382   27.9033 C   0  0  0  0  0  0  0  0  0  0  0  0
    3.1415   -1.7582   27.4702 C   0  0  0  0  0  0  0  0  0  0  0  0
    3.7629   -1.5381   26.1930 C   0  0  0  0  0  0  0  0  0  0  0  0
    5.1311   -1.4568   26.4026 C   0  0  0  0  0  0  0  0  0  0  0  0
    6.3254   -1.9440   25.6560 C   0  0  0  0  0  0  0  0  0  0  0  0
    7.4047   -1.7480   26.1793 O   0  0  0  0  0  0  0  0  0  0  0  0
    5.9615   -2.7257   24.3679 N   0  0  0  0  0  0  0  0  0  0  0  0
    7.0812   -3.8089   23.1683 C   0  0  0  0  0  0  0  0  0  0  0  0
    7.9740   -3.8112   21.3185 C   0  0  0  0  0  0  0  0  0  0  0  0
    9.4513   -3.0694   20.1911 C   0  0  0  0  0  0  0  0  0  0  0  0
    8.7011   -1.9889   18.8249 N   0  0  0  0  0  0  0  0  0  0  0  0
   10.0688   -2.1541   17.0899 C   0  0  0  0  0  0  0  0  0  0  0  0
   11.6686   -2.6672   17.9799 C   0  0  0  0  0  0  0  0  0  0  0  0
   11.4850   -2.8077   19.9445 N   0  0  0  0  0  0  0  0  0  0  0  0
    5.2743   -1.2437   27.7672 N   0  0  0  0  0  0  0  0  0  0  0  0
    4.1321   -1.6277   28.4349 C   0  0  0  0  0  0  0  0  0  0  0  0
    3.9159   -1.8982   29.7961 C   0  0  0  0  0  0  0  0  0  0  0  0
    0.8958   -4.5473   31.2342 H   0  0  0  0  0  0  0  0  0  0  0  0
    2.6095   -5.0473   31.2211 H   0  0  0  0  0  0  0  0  0  0  0  0
    1.7335   -4.8944   32.7577 H   0  0  0  0  0  0  0  0  0  0  0  0
    0.6203   -2.7382   29.5505 H   0  0  0  0  0  0  0  0  0  0  0  0
    1.0440   -2.2220   27.1975 H   0  0  0  0  0  0  0  0  0  0  0  0
    3.2888   -1.6937   25.2361 H   0  0  0  0  0  0  0  0  0  0  0  0
    4.9679   -2.6145   24.1801 H   0  0  0  0  0  0  0  0  0  0  0  0
    6.3156   -3.4894   22.5250 H   0  0  0  0  0  0  0  0  0  0  0  0
    7.0106   -4.8510   23.4614 H   0  0  0  0  0  0  0  0  0  0  0  0
    7.5944   -4.3793   20.4281 H   0  0  0  0  0  0  0  0  0  0  0  0
    8.0884   -4.8573   21.5106 H   0  0  0  0  0  0  0  0  0  0  0  0
    9.8513   -1.5409   16.1997 H   0  0  0  0  0  0  0  0  0  0  0  0
   12.7248   -2.5842   17.7488 H   0  0  0  0  0  0  0  0  0  0  0  0
   11.8966   -3.6738   20.2347 H   0  0  0  0  0  0  0  0  0  0  0  0
    6.1893   -1.2022   28.1927 H   0  0  0  0  0  0  0  0  0  0  0  0
    4.7230   -1.7944   30.5144 H   0  0  0  0  0  0  0  0  0  0  0  0
  1  2  1  0
  2  3  1  0
  3  4  2  0
  4  5  1  0
  5  6  2  0
  6  7  1  0
  7  8  2  0
  8  9  1  0
  9 10  2  0
  9 11  1  0
 11 12  1  0
 12 13  1  0
 13 14  1  0
 14 15  2  0
 15 16  1  0
 16 17  2  0
 17 18  1  0
  8 19  1  0
 19 20  1  0
 20 21  2  0
 21  3  1  0
 20  6  1  0
 18 14  1  0
  1 22  1  0
  1 23  1  0
  1 24  1  0
  4 25  1  0
  5 26  1  0
  7 27  1  0
 11 28  1  0
 12 29  1  0
 12 30  1  0
 13 31  1  0
 13 32  1  0
 16 33  1  0
 17 34  1  0
 18 35  1  0
 19 36  1  0
 21 37  1  0
M  END
>  <Energy>  (1329) 
1034.1477906704508

>  <compound_id>  (1329) 
47222

>  <target_id>  (1329) 
1

>  <reference_id>  (1329) 
80

>  <inspiration_ids>  (1329) 
[40, 80]

>  <energy_score>  (1329) 
1025.1392508634838

>  <distance_score>  (1329) 
6.523582499404275

>  <path>  (1329) 
/opt/xchem-fragalysis-2/maxwin/BulkDock/SCRATCH/511023/C47222-P80/C47222-P80.minimised.mol

>  <scratch_subdir>  (1329) 
/opt/xchem-fragalysis-2/maxwin/BulkDock/SCRATCH/511023/C47222-P80

>  <fragmenstein_runtime>  (1329) 
9.328289985656738

>  <fragmenstein_outcome>  (1329) 
too moved

>  <fragmenstein_mode>  (1329) 
expansion

>  <fragmenstein_error>  (1329) 


$$$$
C47223-P40
     RDKit          3D

 36 38  0  0  0  0  0  0  0  0999 V2000
    1.7203   -5.6863   29.0635 C   0  0  0  0  0  0  0  0  0  0  0  0
    2.3842   -4.4686   28.4964 C   0  0  0  0  0  0  0  0  0  0  0  0
    1.9570   -3.2095   28.9569 C   0  0  0  0  0  0  0  0  0  0  0  0
    2.5584   -2.0332   28.5222 C   0  0  0  0  0  0  0  0  0  0  0  0
    3.6144   -2.0625   27.6106 C   0  0  0  0  0  0  0  0  0  0  0  0
    4.0298   -3.3104   27.1346 C   0  0  0  0  0  0  0  0  0  0  0  0
    5.0229   -3.6260   26.2238 N   0  0  0  0  0  0  0  0  0  0  0  0
    5.0348   -4.9753   25.9669 C   0  0  0  0  0  0  0  0  0  0  0  0
    5.7701   -5.7418   24.9445 C   0  0  0  0  0  0  0  0  0  0  0  0
    5.7394   -6.9266   25.0986 O   0  0  0  0  0  0  0  0  0  0  0  0
    6.3253   -4.9452   23.8718 N   0  0  0  0  0  0  0  0  0  0  0  0
    6.9430   -5.3473   22.5792 C   0  0  0  0  0  0  0  0  0  0  0  0
    7.8876   -4.3824   21.0246 C   0  0  0  0  0  0  0  0  0  0  0  0
    9.9310   -4.8692   20.9008 C   0  0  0  0  0  0  0  0  0  0  0  0
   10.8377   -3.9244   21.5913 N   0  0  0  0  0  0  0  0  0  0  0  0
   12.0560   -4.4583   21.8955 C   0  0  0  0  0  0  0  0  0  0  0  0
   12.0136   -5.7293   21.4422 C   0  0  0  0  0  0  0  0  0  0  0  0
   10.9696   -5.6557   20.5236 N   0  0  0  0  0  0  0  0  0  0  0  0
    4.1131   -5.5324   26.8545 C   0  0  0  0  0  0  0  0  0  0  0  0
    3.4416   -4.5018   27.5559 C   0  0  0  0  0  0  0  0  0  0  0  0
    0.6328   -5.5763   29.0424 H   0  0  0  0  0  0  0  0  0  0  0  0
    2.0319   -5.8122   30.1038 H   0  0  0  0  0  0  0  0  0  0  0  0
    1.9809   -6.5895   28.5054 H   0  0  0  0  0  0  0  0  0  0  0  0
    1.1403   -3.1406   29.6735 H   0  0  0  0  0  0  0  0  0  0  0  0
    2.1999   -1.0756   28.8937 H   0  0  0  0  0  0  0  0  0  0  0  0
    4.0781   -1.1417   27.2702 H   0  0  0  0  0  0  0  0  0  0  0  0
    5.6326   -2.9464   25.7891 H   0  0  0  0  0  0  0  0  0  0  0  0
    6.2458   -3.9690   24.1112 H   0  0  0  0  0  0  0  0  0  0  0  0
    7.2299   -6.2682   23.1095 H   0  0  0  0  0  0  0  0  0  0  0  0
    6.4620   -6.2078   22.0920 H   0  0  0  0  0  0  0  0  0  0  0  0
    7.6298   -3.3494   21.2623 H   0  0  0  0  0  0  0  0  0  0  0  0
    7.3300   -4.5689   20.0775 H   0  0  0  0  0  0  0  0  0  0  0  0
   12.8005   -3.9258   22.4701 H   0  0  0  0  0  0  0  0  0  0  0  0
   12.7220   -6.5400   21.4719 H   0  0  0  0  0  0  0  0  0  0  0  0
   11.2930   -5.2659   19.6576 H   0  0  0  0  0  0  0  0  0  0  0  0
    3.9089   -6.5947   26.9104 H   0  0  0  0  0  0  0  0  0  0  0  0
  1  2  1  0
  2  3  2  0
  3  4  1  0
  4  5  2  0
  5  6  1  0
  6  7  1  0
  7  8  1  0
  8  9  1  0
  9 10  2  0
  9 11  1  0
 11 12  1  0
 12 13  1  0
 13 14  1  0
 14 15  2  0
 15 16  1  0
 16 17  2  0
 17 18  1  0
  8 19  2  0
 19 20  1  0
 20  2  1  0
 20  6  2  0
 18 14  1  0
  1 21  1  0
  1 22  1  0
  1 23  1  0
  3 24  1  0
  4 25  1  0
  5 26  1  0
  7 27  1  0
 11 28  1  0
 12 29  1  0
 12 30  1  0
 13 31  1  0
 13 32  1  0
 16 33  1  0
 17 34  1  0
 18 35  1  0
 19 36  1  0
M  END
>  <Energy>  (1330) 
288.45794645606918

>  <compound_id>  (1330) 
47223

>  <target_id>  (1330) 
1

>  <reference_id>  (1330) 
40

>  <inspiration_ids>  (1330) 
[40, 80]

>  <energy_score>  (1330) 
282.4664720208263

>  <distance_score>  (1330) 
6.658046631826248

>  <path>  (1330) 
/opt/xchem-fragalysis-2/maxwin/BulkDock/SCRATCH/511023/C47223-P40/C47223-P40.minimised.mol

>  <scratch_subdir>  (1330) 
/opt/xchem-fragalysis-2/maxwin/BulkDock/SCRATCH/511023/C47223-P40

>  <fragmenstein_runtime>  (1330) 
10.264373302459717

>  <fragmenstein_outcome>  (1330) 
too moved

>  <fragmenstein_mode>  (1330) 
expansion

>  <fragmenstein_error>  (1330) 


$$$$
C47223-P80
     RDKit          3D

 36 38  0  0  0  0  0  0  0  0999 V2000
    1.4809   -3.1851   28.1900 C   0  0  0  0  0  0  0  0  0  0  0  0
    2.1957   -1.8755   28.0464 C   0  0  0  0  0  0  0  0  0  0  0  0
    2.0591   -0.9485   29.0953 C   0  0  0  0  0  0  0  0  0  0  0  0
    2.7069    0.2813   29.0654 C   0  0  0  0  0  0  0  0  0  0  0  0
    3.5180    0.6376   27.9857 C   0  0  0  0  0  0  0  0  0  0  0  0
    3.6337   -0.2719   26.9289 C   0  0  0  0  0  0  0  0  0  0  0  0
    4.4185   -0.2255   25.7891 N   0  0  0  0  0  0  0  0  0  0  0  0
    4.2506   -1.3037   24.9482 C   0  0  0  0  0  0  0  0  0  0  0  0
    5.2192   -1.9635   24.0364 C   0  0  0  0  0  0  0  0  0  0  0  0
    5.9213   -2.6423   24.6477 O   0  0  0  0  0  0  0  0  0  0  0  0
    5.1291   -1.7976   22.6003 N   0  0  0  0  0  0  0  0  0  0  0  0
    6.0166   -2.7078   21.1588 C   0  0  0  0  0  0  0  0  0  0  0  0
    7.8477   -3.6452   21.1881 C   0  0  0  0  0  0  0  0  0  0  0  0
    9.4196   -3.0239   20.1436 C   0  0  0  0  0  0  0  0  0  0  0  0
   11.2922   -2.6815   19.8296 N   0  0  0  0  0  0  0  0  0  0  0  0
   11.4862   -2.4839   17.7977 C   0  0  0  0  0  0  0  0  0  0  0  0
    9.7766   -2.0075   17.0320 C   0  0  0  0  0  0  0  0  0  0  0  0
    8.6023   -1.7480   18.8026 N   0  0  0  0  0  0  0  0  0  0  0  0
    3.4092   -2.1113   25.7271 C   0  0  0  0  0  0  0  0  0  0  0  0
    2.9916   -1.4984   26.9335 C   0  0  0  0  0  0  0  0  0  0  0  0
    1.7548   -3.6646   29.1357 H   0  0  0  0  0  0  0  0  0  0  0  0
    1.7458   -3.8710   27.3888 H   0  0  0  0  0  0  0  0  0  0  0  0
    0.3978   -3.0297   28.1724 H   0  0  0  0  0  0  0  0  0  0  0  0
    1.4443   -1.1982   29.9577 H   0  0  0  0  0  0  0  0  0  0  0  0
    2.5926    0.9695   29.8989 H   0  0  0  0  0  0  0  0  0  0  0  0
    4.0456    1.5848   27.9765 H   0  0  0  0  0  0  0  0  0  0  0  0
    5.1818    0.4124   25.7091 H   0  0  0  0  0  0  0  0  0  0  0  0
    4.4588   -1.0519   22.3952 H   0  0  0  0  0  0  0  0  0  0  0  0
    5.3357   -3.1990   20.4740 H   0  0  0  0  0  0  0  0  0  0  0  0
    6.5282   -1.7686   20.8445 H   0  0  0  0  0  0  0  0  0  0  0  0
    7.8061   -4.1446   22.1576 H   0  0  0  0  0  0  0  0  0  0  0  0
    7.7837   -4.5051   20.4823 H   0  0  0  0  0  0  0  0  0  0  0  0
   12.4883   -2.2299   17.4569 H   0  0  0  0  0  0  0  0  0  0  0  0
    9.5449   -1.1716   16.3386 H   0  0  0  0  0  0  0  0  0  0  0  0
    8.6624   -0.8301   19.1929 H   0  0  0  0  0  0  0  0  0  0  0  0
    3.2165   -3.1283   25.4453 H   0  0  0  0  0  0  0  0  0  0  0  0
  1  2  1  0
  2  3  2  0
  3  4  1  0
  4  5  2  0
  5  6  1  0
  6  7  1  0
  7  8  1  0
  8  9  1  0
  9 10  2  0
  9 11  1  0
 11 12  1  0
 12 13  1  0
 13 14  1  0
 14 15  2  0
 15 16  1  0
 16 17  2  0
 17 18  1  0
  8 19  2  0
 19 20  1  0
 20  2  1  0
 20  6  2  0
 18 14  1  0
  1 21  1  0
  1 22  1  0
  1 23  1  0
  3 24  1  0
  4 25  1  0
  5 26  1  0
  7 27  1  0
 11 28  1  0
 12 29  1  0
 12 30  1  0
 13 31  1  0
 13 32  1  0
 16 33  1  0
 17 34  1  0
 18 35  1  0
 19 36  1  0
M  END
>  <Energy>  (1331) 
941.73976898851697

>  <compound_id>  (1331) 
47223

>  <target_id>  (1331) 
1

>  <reference_id>  (1331) 
80

>  <inspiration_ids>  (1331) 
[40, 80]

>  <energy_score>  (1331) 
935.7482945532727

>  <distance_score>  (1331) 
6.986305527510911

>  <path>  (1331) 
/opt/xchem-fragalysis-2/maxwin/BulkDock/SCRATCH/511023/C47223-P80/C47223-P80.minimised.mol

>  <scratch_subdir>  (1331) 
/opt/xchem-fragalysis-2/maxwin/BulkDock/SCRATCH/511023/C47223-P80

>  <fragmenstein_runtime>  (1331) 
12.282149076461792

>  <fragmenstein_outcome>  (1331) 
too moved

>  <fragmenstein_mode>  (1331) 
expansion

>  <fragmenstein_error>  (1331) 


$$$$
C47224-P40
     RDKit          3D

 37 39  0  0  0  0  0  0  0  0999 V2000
    6.4811   -6.6361   23.7527 O   0  0  0  0  0  0  0  0  0  0  0  0
    6.0791   -5.7199   24.3900 C   0  0  0  0  0  0  0  0  0  0  0  0
    6.0488   -4.3349   24.1010 N   0  0  0  0  0  0  0  0  0  0  0  0
    6.4529   -3.5037   22.7539 C   0  0  0  0  0  0  0  0  0  0  0  0
    7.6533   -3.5631   21.1968 C   0  0  0  0  0  0  0  0  0  0  0  0
    9.3677   -2.7680   20.4241 C   0  0  0  0  0  0  0  0  0  0  0  0
   11.2049   -2.6407   20.3918 N   0  0  0  0  0  0  0  0  0  0  0  0
   11.7041   -2.4230   18.3953 C   0  0  0  0  0  0  0  0  0  0  0  0
   10.1686   -1.8157   17.3530 C   0  0  0  0  0  0  0  0  0  0  0  0
    8.7431   -1.5233   18.9228 N   0  0  0  0  0  0  0  0  0  0  0  0
    5.5154   -5.8576   25.7412 C   0  0  0  0  0  0  0  0  0  0  0  0
    4.1935   -5.8498   26.1774 C   0  0  0  0  0  0  0  0  0  0  0  0
    4.1736   -5.4705   27.5563 C   0  0  0  0  0  0  0  0  0  0  0  0
    3.1691   -5.0833   28.4798 C   0  0  0  0  0  0  0  0  0  0  0  0
    1.8599   -5.0464   28.0617 O   0  0  0  0  0  0  0  0  0  0  0  0
    1.0405   -4.1410   28.7980 C   0  0  0  0  0  0  0  0  0  0  0  0
    0.6605   -4.7542   29.9500 F   0  0  0  0  0  0  0  0  0  0  0  0
   -0.0915   -3.9457   28.0906 F   0  0  0  0  0  0  0  0  0  0  0  0
    3.5700   -4.7031   29.7733 C   0  0  0  0  0  0  0  0  0  0  0  0
    4.9125   -4.6565   30.1356 C   0  0  0  0  0  0  0  0  0  0  0  0
    5.9061   -5.0264   29.2369 C   0  0  0  0  0  0  0  0  0  0  0  0
    5.5086   -5.4208   27.9577 C   0  0  0  0  0  0  0  0  0  0  0  0
    6.2867   -5.7675   26.8736 N   0  0  0  0  0  0  0  0  0  0  0  0
    5.7094   -3.8358   24.9134 H   0  0  0  0  0  0  0  0  0  0  0  0
    6.3040   -2.6179   23.3742 H   0  0  0  0  0  0  0  0  0  0  0  0
    5.6331   -2.9780   22.2078 H   0  0  0  0  0  0  0  0  0  0  0  0
    7.4064   -4.3022   20.4268 H   0  0  0  0  0  0  0  0  0  0  0  0
    7.0395   -2.6897   21.0971 H   0  0  0  0  0  0  0  0  0  0  0  0
   12.7705   -2.3323   18.1976 H   0  0  0  0  0  0  0  0  0  0  0  0
   10.0808   -0.9831   16.6265 H   0  0  0  0  0  0  0  0  0  0  0  0
    8.7218   -0.5525   19.2563 H   0  0  0  0  0  0  0  0  0  0  0  0
    3.3314   -5.9360   25.5342 H   0  0  0  0  0  0  0  0  0  0  0  0
    1.5048   -3.1681   28.9961 H   0  0  0  0  0  0  0  0  0  0  0  0
    2.8526   -4.4255   30.5412 H   0  0  0  0  0  0  0  0  0  0  0  0
    5.1935   -4.3354   31.1369 H   0  0  0  0  0  0  0  0  0  0  0  0
    6.9548   -4.9864   29.5174 H   0  0  0  0  0  0  0  0  0  0  0  0
    7.2971   -5.7365   26.8604 H   0  0  0  0  0  0  0  0  0  0  0  0
  1  2  2  0
  2  3  1  0
  3  4  1  0
  4  5  1  0
  5  6  1  0
  6  7  2  0
  7  8  1  0
  8  9  2  0
  9 10  1  0
  2 11  1  0
 11 12  2  0
 12 13  1  0
 13 14  2  0
 14 15  1  0
 15 16  1  0
 16 17  1  0
 16 18  1  0
 14 19  1  0
 19 20  2  0
 20 21  1  0
 21 22  2  0
 22 23  1  0
 10  6  1  0
 23 11  1  0
 22 13  1  0
  3 24  1  0
  4 25  1  0
  4 26  1  0
  5 27  1  0
  5 28  1  0
  8 29  1  0
  9 30  1  0
 10 31  1  0
 12 32  1  0
 16 33  1  0
 19 34  1  0
 20 35  1  0
 21 36  1  0
 23 37  1  0
M  END
>  <Energy>  (1332) 
936.45656445883651

>  <compound_id>  (1332) 
47224

>  <target_id>  (1332) 
1

>  <reference_id>  (1332) 
40

>  <inspiration_ids>  (1332) 
[40, 80]

>  <energy_score>  (1332) 
917.9847185694205

>  <distance_score>  (1332) 
6.316972333742312

>  <path>  (1332) 
/opt/xchem-fragalysis-2/maxwin/BulkDock/SCRATCH/511023/C47224-P40/C47224-P40.minimised.mol

>  <scratch_subdir>  (1332) 
/opt/xchem-fragalysis-2/maxwin/BulkDock/SCRATCH/511023/C47224-P40

>  <fragmenstein_runtime>  (1332) 
10.497804164886475

>  <fragmenstein_outcome>  (1332) 
too moved

>  <fragmenstein_mode>  (1332) 
expansion

>  <fragmenstein_error>  (1332) 


$$$$
C47224-P80
     RDKit          3D

 37 39  0  0  0  0  0  0  0  0999 V2000
    2.6671    3.5585   26.6056 O   0  0  0  0  0  0  0  0  0  0  0  0
    3.6285    2.8578   26.7272 C   0  0  0  0  0  0  0  0  0  0  0  0
    5.0157    3.1219   26.4749 N   0  0  0  0  0  0  0  0  0  0  0  0
    5.7077    4.3608   26.0815 C   0  0  0  0  0  0  0  0  0  0  0  0
    5.3756    4.9505   24.6877 C   0  0  0  0  0  0  0  0  0  0  0  0
    6.4646    4.8618   23.6258 C   0  0  0  0  0  0  0  0  0  0  0  0
    7.7744    4.7863   23.7865 N   0  0  0  0  0  0  0  0  0  0  0  0
    8.3256    4.7954   22.5250 C   0  0  0  0  0  0  0  0  0  0  0  0
    7.3399    4.8674   21.5733 C   0  0  0  0  0  0  0  0  0  0  0  0
    6.1657    4.8811   22.2765 N   0  0  0  0  0  0  0  0  0  0  0  0
    3.3785    1.4887   27.2503 C   0  0  0  0  0  0  0  0  0  0  0  0
    4.1675    0.3846   27.5617 C   0  0  0  0  0  0  0  0  0  0  0  0
    3.3381   -0.6709   28.0765 C   0  0  0  0  0  0  0  0  0  0  0  0
    3.5539   -1.9748   28.5859 C   0  0  0  0  0  0  0  0  0  0  0  0
    4.8078   -2.5283   28.7419 O   0  0  0  0  0  0  0  0  0  0  0  0
    5.5599   -1.8033   29.7003 C   0  0  0  0  0  0  0  0  0  0  0  0
    6.4846   -1.0484   29.0559 F   0  0  0  0  0  0  0  0  0  0  0  0
    6.2508   -2.7127   30.4394 F   0  0  0  0  0  0  0  0  0  0  0  0
    2.4632   -2.7830   28.9373 C   0  0  0  0  0  0  0  0  0  0  0  0
    1.1653   -2.2914   28.8473 C   0  0  0  0  0  0  0  0  0  0  0  0
    0.9260   -0.9882   28.4004 C   0  0  0  0  0  0  0  0  0  0  0  0
    2.0283   -0.2065   28.0211 C   0  0  0  0  0  0  0  0  0  0  0  0
    2.0825    1.0791   27.5358 N   0  0  0  0  0  0  0  0  0  0  0  0
    5.5623    2.3218   26.7684 H   0  0  0  0  0  0  0  0  0  0  0  0
    6.7806    4.1952   26.2166 H   0  0  0  0  0  0  0  0  0  0  0  0
    5.3957    5.0955   26.8336 H   0  0  0  0  0  0  0  0  0  0  0  0
    4.4419    4.5234   24.3045 H   0  0  0  0  0  0  0  0  0  0  0  0
    5.1893    6.0249   24.8208 H   0  0  0  0  0  0  0  0  0  0  0  0
    9.3989    4.7697   22.3820 H   0  0  0  0  0  0  0  0  0  0  0  0
    7.3555    4.9321   20.4963 H   0  0  0  0  0  0  0  0  0  0  0  0
    5.2329    4.8954   21.8818 H   0  0  0  0  0  0  0  0  0  0  0  0
    5.2403    0.3127   27.4376 H   0  0  0  0  0  0  0  0  0  0  0  0
    4.9735   -1.1773   30.3839 H   0  0  0  0  0  0  0  0  0  0  0  0
    2.6323   -3.7929   29.2981 H   0  0  0  0  0  0  0  0  0  0  0  0
    0.3255   -2.9264   29.1177 H   0  0  0  0  0  0  0  0  0  0  0  0
   -0.0881   -0.6096   28.3207 H   0  0  0  0  0  0  0  0  0  0  0  0
    1.2807    1.6756   27.3840 H   0  0  0  0  0  0  0  0  0  0  0  0
  1  2  2  0
  2  3  1  0
  3  4  1  0
  4  5  1  0
  5  6  1  0
  6  7  2  0
  7  8  1  0
  8  9  2  0
  9 10  1  0
  2 11  1  0
 11 12  2  0
 12 13  1  0
 13 14  2  0
 14 15  1  0
 15 16  1  0
 16 17  1  0
 16 18  1  0
 14 19  1  0
 19 20  2  0
 20 21  1  0
 21 22  2  0
 22 23  1  0
 10  6  1  0
 23 11  1  0
 22 13  1  0
  3 24  1  0
  4 25  1  0
  4 26  1  0
  5 27  1  0
  5 28  1  0
  8 29  1  0
  9 30  1  0
 10 31  1  0
 12 32  1  0
 16 33  1  0
 19 34  1  0
 20 35  1  0
 21 36  1  0
 23 37  1  0
M  END
>  <Energy>  (1333) 
1.6490171097210005

>  <compound_id>  (1333) 
47224

>  <target_id>  (1333) 
1

>  <reference_id>  (1333) 
80

>  <inspiration_ids>  (1333) 
[40, 80]

>  <energy_score>  (1333) 
-16.822828779708914

>  <distance_score>  (1333) 
9.180911977570329

>  <path>  (1333) 
/opt/xchem-fragalysis-2/maxwin/BulkDock/SCRATCH/511023/C47224-P80/C47224-P80.minimised.mol

>  <scratch_subdir>  (1333) 
/opt/xchem-fragalysis-2/maxwin/BulkDock/SCRATCH/511023/C47224-P80

>  <fragmenstein_runtime>  (1333) 
19.366105318069458

>  <fragmenstein_outcome>  (1333) 
too moved

>  <fragmenstein_mode>  (1333) 
expansion

>  <fragmenstein_error>  (1333) 


$$$$
C47225-P40
     RDKit          3D

 42 44  0  0  0  0  0  0  0  0999 V2000
    2.7126   -3.7469   31.5202 C   0  0  0  0  0  0  0  0  0  0  0  0
    1.6446   -3.4894   30.4554 C   0  0  0  0  0  0  0  0  0  0  0  0
    1.0692   -4.8062   29.9262 C   0  0  0  0  0  0  0  0  0  0  0  0
    2.1841   -2.6203   29.3332 C   0  0  0  0  0  0  0  0  0  0  0  0
    1.6468   -1.3431   29.1291 C   0  0  0  0  0  0  0  0  0  0  0  0
    2.1173   -0.4960   28.1120 C   0  0  0  0  0  0  0  0  0  0  0  0
    3.1352   -0.9414   27.2511 C   0  0  0  0  0  0  0  0  0  0  0  0
    3.7703   -0.4049   26.0742 C   0  0  0  0  0  0  0  0  0  0  0  0
    4.5057   -1.4239   25.4993 C   0  0  0  0  0  0  0  0  0  0  0  0
    5.1017   -1.7476   24.1969 C   0  0  0  0  0  0  0  0  0  0  0  0
    5.6189   -2.8207   24.2139 O   0  0  0  0  0  0  0  0  0  0  0  0
    4.9550   -0.7790   23.1096 N   0  0  0  0  0  0  0  0  0  0  0  0
    5.3898   -0.8789   21.3471 C   0  0  0  0  0  0  0  0  0  0  0  0
    6.8632   -0.2552   20.0696 C   0  0  0  0  0  0  0  0  0  0  0  0
    7.6248    0.9523   19.3064 C   0  0  0  0  0  0  0  0  0  0  0  0
    8.3096    1.9823   19.7498 N   0  0  0  0  0  0  0  0  0  0  0  0
    8.8675    2.6432   18.6859 C   0  0  0  0  0  0  0  0  0  0  0  0
    8.7144    1.9067   17.5492 C   0  0  0  0  0  0  0  0  0  0  0  0
    7.9458    0.8497   17.9463 N   0  0  0  0  0  0  0  0  0  0  0  0
    4.5853   -2.4078   26.4847 N   0  0  0  0  0  0  0  0  0  0  0  0
    3.6501   -2.2140   27.4652 C   0  0  0  0  0  0  0  0  0  0  0  0
    3.2187   -3.0650   28.4937 C   0  0  0  0  0  0  0  0  0  0  0  0
    3.0920   -2.8035   31.9288 H   0  0  0  0  0  0  0  0  0  0  0  0
    3.5669   -4.2999   31.1159 H   0  0  0  0  0  0  0  0  0  0  0  0
    2.2990   -4.3297   32.3503 H   0  0  0  0  0  0  0  0  0  0  0  0
    0.8198   -2.9563   30.9469 H   0  0  0  0  0  0  0  0  0  0  0  0
    1.8381   -5.4368   29.4667 H   0  0  0  0  0  0  0  0  0  0  0  0
    0.6115   -5.3809   30.7388 H   0  0  0  0  0  0  0  0  0  0  0  0
    0.2964   -4.6178   29.1730 H   0  0  0  0  0  0  0  0  0  0  0  0
    0.8424   -0.9787   29.7654 H   0  0  0  0  0  0  0  0  0  0  0  0
    1.6671    0.4818   27.9696 H   0  0  0  0  0  0  0  0  0  0  0  0
    3.5486    0.5481   25.6144 H   0  0  0  0  0  0  0  0  0  0  0  0
    4.3860   -0.0046   23.4293 H   0  0  0  0  0  0  0  0  0  0  0  0
    5.4509   -1.9766   21.0533 H   0  0  0  0  0  0  0  0  0  0  0  0
    4.6796   -0.0355   21.3239 H   0  0  0  0  0  0  0  0  0  0  0  0
    6.8268   -0.7695   19.1261 H   0  0  0  0  0  0  0  0  0  0  0  0
    7.6099   -0.7760   20.4770 H   0  0  0  0  0  0  0  0  0  0  0  0
    9.3873    3.5837   18.8134 H   0  0  0  0  0  0  0  0  0  0  0  0
    8.9879    2.0763   16.5185 H   0  0  0  0  0  0  0  0  0  0  0  0
    7.3593    0.3419   17.3009 H   0  0  0  0  0  0  0  0  0  0  0  0
    5.1193   -3.2551   26.3302 H   0  0  0  0  0  0  0  0  0  0  0  0
    3.6694   -4.0442   28.6168 H   0  0  0  0  0  0  0  0  0  0  0  0
  1  2  1  0
  2  3  1  0
  2  4  1  0
  4  5  2  0
  5  6  1  0
  6  7  2  0
  7  8  1  0
  8  9  2  0
  9 10  1  0
 10 11  2  0
 10 12  1  0
 12 13  1  0
 13 14  1  0
 14 15  1  0
 15 16  2  0
 16 17  1  0
 17 18  2  0
 18 19  1  0
  9 20  1  0
 20 21  1  0
 21 22  2  0
 22  4  1  0
 21  7  1  0
 19 15  1  0
  1 23  1  0
  1 24  1  0
  1 25  1  0
  2 26  1  0
  3 27  1  0
  3 28  1  0
  3 29  1  0
  5 30  1  0
  6 31  1  0
  8 32  1  0
 12 33  1  0
 13 34  1  0
 13 35  1  0
 14 36  1  0
 14 37  1  0
 17 38  1  0
 18 39  1  0
 19 40  1  0
 20 41  1  0
 22 42  1  0
M  END
>  <Energy>  (1334) 
201.74442627806914

>  <compound_id>  (1334) 
47225

>  <target_id>  (1334) 
1

>  <reference_id>  (1334) 
40

>  <inspiration_ids>  (1334) 
[40, 80]

>  <energy_score>  (1334) 
183.82149736177172

>  <distance_score>  (1334) 
7.438181723152058

>  <path>  (1334) 
/opt/xchem-fragalysis-2/maxwin/BulkDock/SCRATCH/511023/C47225-P40/C47225-P40.minimised.mol

>  <scratch_subdir>  (1334) 
/opt/xchem-fragalysis-2/maxwin/BulkDock/SCRATCH/511023/C47225-P40

>  <fragmenstein_runtime>  (1334) 
15.624881267547607

>  <fragmenstein_outcome>  (1334) 
too moved

>  <fragmenstein_mode>  (1334) 
expansion

>  <fragmenstein_error>  (1334) 


$$$$
C47225-P80
     RDKit          3D

 42 44  0  0  0  0  0  0  0  0999 V2000
   -0.5513   -3.1882   31.3679 C   0  0  0  0  0  0  0  0  0  0  0  0
    0.5892   -4.2112   31.3592 C   0  0  0  0  0  0  0  0  0  0  0  0
    0.0887   -5.5737   30.8879 C   0  0  0  0  0  0  0  0  0  0  0  0
    1.7797   -3.7526   30.5314 C   0  0  0  0  0  0  0  0  0  0  0  0
    3.0654   -3.8048   31.0879 C   0  0  0  0  0  0  0  0  0  0  0  0
    4.1900   -3.3253   30.3975 C   0  0  0  0  0  0  0  0  0  0  0  0
    4.0335   -2.7912   29.1063 C   0  0  0  0  0  0  0  0  0  0  0  0
    4.9210   -2.2010   28.1449 C   0  0  0  0  0  0  0  0  0  0  0  0
    4.1857   -1.8900   27.0198 C   0  0  0  0  0  0  0  0  0  0  0  0
    4.3912   -1.1472   25.7892 C   0  0  0  0  0  0  0  0  0  0  0  0
    3.9654   -0.0282   25.8369 O   0  0  0  0  0  0  0  0  0  0  0  0
    4.9726   -1.8922   24.6884 N   0  0  0  0  0  0  0  0  0  0  0  0
    5.1238   -1.5452   23.2771 C   0  0  0  0  0  0  0  0  0  0  0  0
    5.9168   -1.5387   21.4697 C   0  0  0  0  0  0  0  0  0  0  0  0
    7.1069   -0.6575   20.0770 C   0  0  0  0  0  0  0  0  0  0  0  0
    8.2940   -0.7334   19.4546 N   0  0  0  0  0  0  0  0  0  0  0  0
    8.3941    0.0880   17.8599 C   0  0  0  0  0  0  0  0  0  0  0  0
    7.4545   -0.3778   17.1270 C   0  0  0  0  0  0  0  0  0  0  0  0
    6.6013   -0.6817   18.5378 N   0  0  0  0  0  0  0  0  0  0  0  0
    2.8858   -2.2888   27.2841 N   0  0  0  0  0  0  0  0  0  0  0  0
    2.7586   -2.8028   28.5478 C   0  0  0  0  0  0  0  0  0  0  0  0
    1.6219   -3.2705   29.2221 C   0  0  0  0  0  0  0  0  0  0  0  0
   -1.0189   -3.0821   30.3832 H   0  0  0  0  0  0  0  0  0  0  0  0
   -1.3333   -3.4943   32.0711 H   0  0  0  0  0  0  0  0  0  0  0  0
   -0.1907   -2.2013   31.6781 H   0  0  0  0  0  0  0  0  0  0  0  0
    0.9146   -4.3216   32.4024 H   0  0  0  0  0  0  0  0  0  0  0  0
   -0.2111   -5.5587   29.8346 H   0  0  0  0  0  0  0  0  0  0  0  0
    0.8752   -6.3227   30.9976 H   0  0  0  0  0  0  0  0  0  0  0  0
   -0.7684   -5.9045   31.4839 H   0  0  0  0  0  0  0  0  0  0  0  0
    3.2042   -4.1934   32.0957 H   0  0  0  0  0  0  0  0  0  0  0  0
    5.1685   -3.3433   30.8672 H   0  0  0  0  0  0  0  0  0  0  0  0
    5.9768   -2.0038   28.2716 H   0  0  0  0  0  0  0  0  0  0  0  0
    5.3017   -2.7926   25.0342 H   0  0  0  0  0  0  0  0  0  0  0  0
    4.1748   -2.0169   23.1372 H   0  0  0  0  0  0  0  0  0  0  0  0
    4.9403   -0.5003   23.4856 H   0  0  0  0  0  0  0  0  0  0  0  0
    5.2605   -0.6283   21.4692 H   0  0  0  0  0  0  0  0  0  0  0  0
    5.6785   -2.5577   21.0919 H   0  0  0  0  0  0  0  0  0  0  0  0
    9.2931    0.5757   17.5019 H   0  0  0  0  0  0  0  0  0  0  0  0
    7.0241   -0.5768   16.1699 H   0  0  0  0  0  0  0  0  0  0  0  0
    5.7223   -1.1365   18.4005 H   0  0  0  0  0  0  0  0  0  0  0  0
    2.1292   -2.1574   26.6220 H   0  0  0  0  0  0  0  0  0  0  0  0
    0.6495   -3.2374   28.7409 H   0  0  0  0  0  0  0  0  0  0  0  0
  1  2  1  0
  2  3  1  0
  2  4  1  0
  4  5  2  0
  5  6  1  0
  6  7  2  0
  7  8  1  0
  8  9  2  0
  9 10  1  0
 10 11  2  0
 10 12  1  0
 12 13  1  0
 13 14  1  0
 14 15  1  0
 15 16  2  0
 16 17  1  0
 17 18  2  0
 18 19  1  0
  9 20  1  0
 20 21  1  0
 21 22  2  0
 22  4  1  0
 21  7  1  0
 19 15  1  0
  1 23  1  0
  1 24  1  0
  1 25  1  0
  2 26  1  0
  3 27  1  0
  3 28  1  0
  3 29  1  0
  5 30  1  0
  6 31  1  0
  8 32  1  0
 12 33  1  0
 13 34  1  0
 13 35  1  0
 14 36  1  0
 14 37  1  0
 17 38  1  0
 18 39  1  0
 19 40  1  0
 20 41  1  0
 22 42  1  0
M  END
>  <Energy>  (1335) 
390.50686813222984

>  <compound_id>  (1335) 
47225

>  <target_id>  (1335) 
1

>  <reference_id>  (1335) 
80

>  <inspiration_ids>  (1335) 
[40, 80]

>  <energy_score>  (1335) 
372.58393921592716

>  <distance_score>  (1335) 
6.495764367305606

>  <path>  (1335) 
/opt/xchem-fragalysis-2/maxwin/BulkDock/SCRATCH/511023/C47225-P80/C47225-P80.minimised.mol

>  <scratch_subdir>  (1335) 
/opt/xchem-fragalysis-2/maxwin/BulkDock/SCRATCH/511023/C47225-P80

>  <fragmenstein_runtime>  (1335) 
17.580825567245483

>  <fragmenstein_outcome>  (1335) 
too moved

>  <fragmenstein_mode>  (1335) 
expansion

>  <fragmenstein_error>  (1335) 


$$$$
C25219-P40
     RDKit          3D

 37 39  0  0  0  0  0  0  0  0999 V2000
    1.5160   -6.3880   28.7756 C   0  0  0  0  0  0  0  0  0  0  0  0
    2.5722   -6.4585   27.8228 O   0  0  0  0  0  0  0  0  0  0  0  0
    3.2779   -5.2856   27.6573 C   0  0  0  0  0  0  0  0  0  0  0  0
    3.0457   -4.1400   28.4552 C   0  0  0  0  0  0  0  0  0  0  0  0
    3.7641   -2.9636   28.2893 C   0  0  0  0  0  0  0  0  0  0  0  0
    4.7544   -2.8834   27.3233 C   0  0  0  0  0  0  0  0  0  0  0  0
    4.9801   -4.0106   26.5270 C   0  0  0  0  0  0  0  0  0  0  0  0
    5.9013   -4.1776   25.5279 N   0  0  0  0  0  0  0  0  0  0  0  0
    5.7465   -5.3607   24.8451 C   0  0  0  0  0  0  0  0  0  0  0  0
    6.4582   -5.7287   23.5508 C   0  0  0  0  0  0  0  0  0  0  0  0
    6.6167   -6.8870   23.3509 O   0  0  0  0  0  0  0  0  0  0  0  0
    6.9179   -4.5323   22.7632 N   0  0  0  0  0  0  0  0  0  0  0  0
    7.8320   -4.3941   21.0603 C   0  0  0  0  0  0  0  0  0  0  0  0
    9.8386   -5.0111   20.7147 C   0  0  0  0  0  0  0  0  0  0  0  0
   11.1941   -5.8619   21.3357 C   0  0  0  0  0  0  0  0  0  0  0  0
   12.5014   -5.3672   21.3770 C   0  0  0  0  0  0  0  0  0  0  0  0
   13.3482   -6.2431   21.9855 N   0  0  0  0  0  0  0  0  0  0  0  0
   12.6121   -7.2873   22.2708 C   0  0  0  0  0  0  0  0  0  0  0  0
   11.3301   -7.1451   21.8205 N   0  0  0  0  0  0  0  0  0  0  0  0
    4.8113   -6.0692   25.6169 C   0  0  0  0  0  0  0  0  0  0  0  0
    4.2791   -5.2071   26.6482 C   0  0  0  0  0  0  0  0  0  0  0  0
    0.9795   -7.3409   28.7680 H   0  0  0  0  0  0  0  0  0  0  0  0
    0.8046   -5.5964   28.5289 H   0  0  0  0  0  0  0  0  0  0  0  0
    1.9041   -6.2246   29.7833 H   0  0  0  0  0  0  0  0  0  0  0  0
    2.2978   -4.1216   29.2410 H   0  0  0  0  0  0  0  0  0  0  0  0
    3.5564   -2.1024   28.9200 H   0  0  0  0  0  0  0  0  0  0  0  0
    5.3306   -1.9726   27.1887 H   0  0  0  0  0  0  0  0  0  0  0  0
    6.6012   -3.4900   25.2776 H   0  0  0  0  0  0  0  0  0  0  0  0
    6.5341   -3.6920   23.1780 H   0  0  0  0  0  0  0  0  0  0  0  0
    7.7266   -3.3353   21.1387 H   0  0  0  0  0  0  0  0  0  0  0  0
    7.1872   -4.6143   20.1656 H   0  0  0  0  0  0  0  0  0  0  0  0
    9.9322   -5.4172   19.7104 H   0  0  0  0  0  0  0  0  0  0  0  0
   10.5716   -4.2547   21.1643 H   0  0  0  0  0  0  0  0  0  0  0  0
   12.8516   -4.4057   21.0206 H   0  0  0  0  0  0  0  0  0  0  0  0
   12.9566   -8.1839   22.7686 H   0  0  0  0  0  0  0  0  0  0  0  0
   10.6093   -7.8493   21.8923 H   0  0  0  0  0  0  0  0  0  0  0  0
    4.4807   -7.0757   25.3871 H   0  0  0  0  0  0  0  0  0  0  0  0
  1  2  1  0
  2  3  1  0
  3  4  2  0
  4  5  1  0
  5  6  2  0
  6  7  1  0
  7  8  1  0
  8  9  1  0
  9 10  1  0
 10 11  2  0
 10 12  1  0
 12 13  1  0
 13 14  1  0
 14 15  1  0
 15 16  2  0
 16 17  1  0
 17 18  2  0
 18 19  1  0
  9 20  2  0
 20 21  1  0
 21  3  1  0
 21  7  2  0
 19 15  1  0
  1 22  1  0
  1 23  1  0
  1 24  1  0
  4 25  1  0
  5 26  1  0
  6 27  1  0
  8 28  1  0
 12 29  1  0
 13 30  1  0
 13 31  1  0
 14 32  1  0
 14 33  1  0
 16 34  1  0
 18 35  1  0
 19 36  1  0
 20 37  1  0
M  END
>  <Energy>  (1336) 
253.84959845263398

>  <compound_id>  (1336) 
25219

>  <target_id>  (1336) 
1

>  <reference_id>  (1336) 
40

>  <inspiration_ids>  (1336) 
[40, 80]

>  <energy_score>  (1336) 
227.11618894220828

>  <distance_score>  (1336) 
7.664475494554255

>  <path>  (1336) 
/opt/xchem-fragalysis-2/maxwin/BulkDock/SCRATCH/511023/C25219-P40/C25219-P40.minimised.mol

>  <scratch_subdir>  (1336) 
/opt/xchem-fragalysis-2/maxwin/BulkDock/SCRATCH/511023/C25219-P40

>  <fragmenstein_runtime>  (1336) 
8.926620721817017

>  <fragmenstein_outcome>  (1336) 
too moved

>  <fragmenstein_mode>  (1336) 
expansion

>  <fragmenstein_error>  (1336) 


$$$$
C25219-P80
     RDKit          3D

 37 39  0  0  0  0  0  0  0  0999 V2000
    0.2707   -3.9267   28.5141 C   0  0  0  0  0  0  0  0  0  0  0  0
    1.4326   -3.5050   27.8101 O   0  0  0  0  0  0  0  0  0  0  0  0
    2.0040   -2.3230   28.2116 C   0  0  0  0  0  0  0  0  0  0  0  0
    1.7148   -1.7108   29.4419 C   0  0  0  0  0  0  0  0  0  0  0  0
    2.4033   -0.5769   29.8664 C   0  0  0  0  0  0  0  0  0  0  0  0
    3.4263   -0.0274   29.0935 C   0  0  0  0  0  0  0  0  0  0  0  0
    3.7160   -0.6361   27.8679 C   0  0  0  0  0  0  0  0  0  0  0  0
    4.7425   -0.3826   26.9737 N   0  0  0  0  0  0  0  0  0  0  0  0
    4.7866   -1.3477   25.9919 C   0  0  0  0  0  0  0  0  0  0  0  0
    6.0434   -1.9080   25.4465 C   0  0  0  0  0  0  0  0  0  0  0  0
    7.0208   -1.8047   26.1644 O   0  0  0  0  0  0  0  0  0  0  0  0
    5.8684   -2.6257   24.0990 N   0  0  0  0  0  0  0  0  0  0  0  0
    7.1340   -3.7904   23.0593 C   0  0  0  0  0  0  0  0  0  0  0  0
    8.4787   -3.4829   21.4216 C   0  0  0  0  0  0  0  0  0  0  0  0
   10.7597   -3.3183   21.5752 C   0  0  0  0  0  0  0  0  0  0  0  0
   11.7331   -3.3283   22.8443 C   0  0  0  0  0  0  0  0  0  0  0  0
   13.0561   -3.6317   22.6224 N   0  0  0  0  0  0  0  0  0  0  0  0
   13.0985   -3.9926   21.3825 C   0  0  0  0  0  0  0  0  0  0  0  0
   11.8501   -4.1597   20.9001 N   0  0  0  0  0  0  0  0  0  0  0  0
    3.5932   -2.0505   26.1238 C   0  0  0  0  0  0  0  0  0  0  0  0
    3.0063   -1.7362   27.3905 C   0  0  0  0  0  0  0  0  0  0  0  0
   -0.1431   -4.7945   27.9913 H   0  0  0  0  0  0  0  0  0  0  0  0
   -0.4979   -3.1467   28.5270 H   0  0  0  0  0  0  0  0  0  0  0  0
    0.5252   -4.2518   29.5281 H   0  0  0  0  0  0  0  0  0  0  0  0
    0.9663   -2.1152   30.1143 H   0  0  0  0  0  0  0  0  0  0  0  0
    2.1645   -0.1318   30.8292 H   0  0  0  0  0  0  0  0  0  0  0  0
    3.9966    0.8244   29.4490 H   0  0  0  0  0  0  0  0  0  0  0  0
    5.5365    0.2000   27.1894 H   0  0  0  0  0  0  0  0  0  0  0  0
    4.9250   -2.4303   23.7335 H   0  0  0  0  0  0  0  0  0  0  0  0
    7.0121   -4.8814   23.1923 H   0  0  0  0  0  0  0  0  0  0  0  0
    7.5870   -3.8198   24.0060 H   0  0  0  0  0  0  0  0  0  0  0  0
    8.1096   -4.5603   21.3523 H   0  0  0  0  0  0  0  0  0  0  0  0
    8.4548   -3.9839   20.3976 H   0  0  0  0  0  0  0  0  0  0  0  0
   11.4662   -2.9970   23.8446 H   0  0  0  0  0  0  0  0  0  0  0  0
   13.9865   -4.2545   20.8257 H   0  0  0  0  0  0  0  0  0  0  0  0
   11.6502   -4.5793   20.0083 H   0  0  0  0  0  0  0  0  0  0  0  0
    3.3411   -2.9122   25.5284 H   0  0  0  0  0  0  0  0  0  0  0  0
  1  2  1  0
  2  3  1  0
  3  4  2  0
  4  5  1  0
  5  6  2  0
  6  7  1  0
  7  8  1  0
  8  9  1  0
  9 10  1  0
 10 11  2  0
 10 12  1  0
 12 13  1  0
 13 14  1  0
 14 15  1  0
 15 16  2  0
 16 17  1  0
 17 18  2  0
 18 19  1  0
  9 20  2  0
 20 21  1  0
 21  3  1  0
 21  7  2  0
 19 15  1  0
  1 22  1  0
  1 23  1  0
  1 24  1  0
  4 25  1  0
  5 26  1  0
  6 27  1  0
  8 28  1  0
 12 29  1  0
 13 30  1  0
 13 31  1  0
 14 32  1  0
 14 33  1  0
 16 34  1  0
 18 35  1  0
 19 36  1  0
 20 37  1  0
M  END
>  <Energy>  (1337) 
550.65604343968414

>  <compound_id>  (1337) 
25219

>  <target_id>  (1337) 
1

>  <reference_id>  (1337) 
80

>  <inspiration_ids>  (1337) 
[40, 80]

>  <energy_score>  (1337) 
523.9226339292443

>  <distance_score>  (1337) 
7.4002772761572855

>  <path>  (1337) 
/opt/xchem-fragalysis-2/maxwin/BulkDock/SCRATCH/511023/C25219-P80/C25219-P80.minimised.mol

>  <scratch_subdir>  (1337) 
/opt/xchem-fragalysis-2/maxwin/BulkDock/SCRATCH/511023/C25219-P80

>  <fragmenstein_runtime>  (1337) 
11.360698223114014

>  <fragmenstein_outcome>  (1337) 
too moved

>  <fragmenstein_mode>  (1337) 
expansion

>  <fragmenstein_error>  (1337) 


$$$$
C47226-P40
     RDKit          3D

 37 39  0  0  0  0  0  0  0  0999 V2000
    2.6864   -8.1347   24.4100 O   0  0  0  0  0  0  0  0  0  0  0  0
    3.7766   -8.0323   24.8086 C   0  0  0  0  0  0  0  0  0  0  0  0
    5.0815   -8.7358   24.3545 N   0  0  0  0  0  0  0  0  0  0  0  0
    5.2989   -9.8105   23.3508 C   0  0  0  0  0  0  0  0  0  0  0  0
    6.6857  -10.1313   22.7267 C   0  0  0  0  0  0  0  0  0  0  0  0
    6.9959   -9.7414   21.2569 C   0  0  0  0  0  0  0  0  0  0  0  0
    8.1250   -9.9930   20.5998 N   0  0  0  0  0  0  0  0  0  0  0  0
    7.9975   -9.4088   19.3707 C   0  0  0  0  0  0  0  0  0  0  0  0
    6.9402   -8.5377   19.3839 C   0  0  0  0  0  0  0  0  0  0  0  0
    6.3915   -8.7026   20.6123 N   0  0  0  0  0  0  0  0  0  0  0  0
    3.8356   -7.1214   25.9813 C   0  0  0  0  0  0  0  0  0  0  0  0
    4.5622   -7.0048   27.1495 C   0  0  0  0  0  0  0  0  0  0  0  0
    3.8583   -6.1269   28.0389 C   0  0  0  0  0  0  0  0  0  0  0  0
    4.0855   -5.6694   29.3346 C   0  0  0  0  0  0  0  0  0  0  0  0
    3.1340   -4.8567   29.9793 C   0  0  0  0  0  0  0  0  0  0  0  0
    1.9580   -4.4735   29.3624 C   0  0  0  0  0  0  0  0  0  0  0  0
    0.9640   -3.7068   29.8922 O   0  0  0  0  0  0  0  0  0  0  0  0
    1.0665   -3.3140   31.2546 C   0  0  0  0  0  0  0  0  0  0  0  0
    1.1379   -4.4190   32.0388 F   0  0  0  0  0  0  0  0  0  0  0  0
    2.1895   -2.5835   31.4482 F   0  0  0  0  0  0  0  0  0  0  0  0
    1.7627   -4.8538   28.0377 C   0  0  0  0  0  0  0  0  0  0  0  0
    2.7221   -5.6680   27.4004 C   0  0  0  0  0  0  0  0  0  0  0  0
    2.8374   -6.1492   26.1221 N   0  0  0  0  0  0  0  0  0  0  0  0
    5.8384   -8.4753   24.9723 H   0  0  0  0  0  0  0  0  0  0  0  0
    4.5413   -9.6812   22.5780 H   0  0  0  0  0  0  0  0  0  0  0  0
    4.9902  -10.7096   23.9002 H   0  0  0  0  0  0  0  0  0  0  0  0
    7.4755   -9.7538   23.3830 H   0  0  0  0  0  0  0  0  0  0  0  0
    6.7905  -11.2256   22.7350 H   0  0  0  0  0  0  0  0  0  0  0  0
    8.6716   -9.6790   18.5754 H   0  0  0  0  0  0  0  0  0  0  0  0
    6.4978   -7.8383   18.6936 H   0  0  0  0  0  0  0  0  0  0  0  0
    5.7145   -8.1357   21.0838 H   0  0  0  0  0  0  0  0  0  0  0  0
    5.4593   -7.5584   27.3951 H   0  0  0  0  0  0  0  0  0  0  0  0
    5.0149   -5.9225   29.8379 H   0  0  0  0  0  0  0  0  0  0  0  0
    3.3721   -4.5236   30.9869 H   0  0  0  0  0  0  0  0  0  0  0  0
    0.1930   -2.7225   31.5411 H   0  0  0  0  0  0  0  0  0  0  0  0
    0.8821   -4.4920   27.5275 H   0  0  0  0  0  0  0  0  0  0  0  0
    2.1684   -6.0087   25.3851 H   0  0  0  0  0  0  0  0  0  0  0  0
  1  2  2  0
  2  3  1  0
  3  4  1  0
  4  5  1  0
  5  6  1  0
  6  7  2  0
  7  8  1  0
  8  9  2  0
  9 10  1  0
  2 11  1  0
 11 12  2  0
 12 13  1  0
 13 14  2  0
 14 15  1  0
 15 16  2  0
 16 17  1  0
 17 18  1  0
 18 19  1  0
 18 20  1  0
 16 21  1  0
 21 22  2  0
 22 23  1  0
 10  6  1  0
 23 11  1  0
 22 13  1  0
  3 24  1  0
  4 25  1  0
  4 26  1  0
  5 27  1  0
  5 28  1  0
  8 29  1  0
  9 30  1  0
 10 31  1  0
 12 32  1  0
 14 33  1  0
 15 34  1  0
 18 35  1  0
 21 36  1  0
 23 37  1  0
M  END
>  <Energy>  (1338) 
34.044415646783797

>  <compound_id>  (1338) 
47226

>  <target_id>  (1338) 
1

>  <reference_id>  (1338) 
40

>  <inspiration_ids>  (1338) 
[40, 80]

>  <energy_score>  (1338) 
15.478967749381184

>  <distance_score>  (1338) 
7.533734128706477

>  <path>  (1338) 
/opt/xchem-fragalysis-2/maxwin/BulkDock/SCRATCH/511023/C47226-P40/C47226-P40.minimised.mol

>  <scratch_subdir>  (1338) 
/opt/xchem-fragalysis-2/maxwin/BulkDock/SCRATCH/511023/C47226-P40

>  <fragmenstein_runtime>  (1338) 
8.01243281364441

>  <fragmenstein_outcome>  (1338) 
too moved

>  <fragmenstein_mode>  (1338) 
expansion

>  <fragmenstein_error>  (1338) 


$$$$
C47226-P80
     RDKit          3D

 37 39  0  0  0  0  0  0  0  0999 V2000
    4.7399   -0.2061   24.0866 O   0  0  0  0  0  0  0  0  0  0  0  0
    5.0235   -1.2726   24.4492 C   0  0  0  0  0  0  0  0  0  0  0  0
    5.4879   -2.3790   23.7454 N   0  0  0  0  0  0  0  0  0  0  0  0
    5.7452   -2.6963   21.7981 C   0  0  0  0  0  0  0  0  0  0  0  0
    7.7197   -3.3940   21.2969 C   0  0  0  0  0  0  0  0  0  0  0  0
    9.3800   -3.0376   20.1399 C   0  0  0  0  0  0  0  0  0  0  0  0
   11.2564   -2.6778   19.8602 N   0  0  0  0  0  0  0  0  0  0  0  0
   11.4941   -2.4957   17.8262 C   0  0  0  0  0  0  0  0  0  0  0  0
    9.7950   -2.0136   17.0339 C   0  0  0  0  0  0  0  0  0  0  0  0
    8.6020   -1.7508   18.7912 N   0  0  0  0  0  0  0  0  0  0  0  0
    4.7492   -1.5376   25.8714 C   0  0  0  0  0  0  0  0  0  0  0  0
    5.4076   -1.5098   27.0899 C   0  0  0  0  0  0  0  0  0  0  0  0
    4.5160   -2.0244   28.0977 C   0  0  0  0  0  0  0  0  0  0  0  0
    4.6310   -2.3626   29.4619 C   0  0  0  0  0  0  0  0  0  0  0  0
    3.5220   -2.8910   30.1567 C   0  0  0  0  0  0  0  0  0  0  0  0
    2.2940   -3.0638   29.5222 C   0  0  0  0  0  0  0  0  0  0  0  0
    1.1496   -3.5556   30.0849 O   0  0  0  0  0  0  0  0  0  0  0  0
    1.2668   -4.2272   31.3272 C   0  0  0  0  0  0  0  0  0  0  0  0
    1.5210   -3.3217   32.3030 F   0  0  0  0  0  0  0  0  0  0  0  0
    0.0478   -4.7624   31.6003 F   0  0  0  0  0  0  0  0  0  0  0  0
    2.1559   -2.7020   28.1792 C   0  0  0  0  0  0  0  0  0  0  0  0
    3.2815   -2.2208   27.4944 C   0  0  0  0  0  0  0  0  0  0  0  0
    3.4394   -1.8904   26.1733 N   0  0  0  0  0  0  0  0  0  0  0  0
    5.7207   -3.1362   24.4257 H   0  0  0  0  0  0  0  0  0  0  0  0
    5.1144   -3.2149   21.0883 H   0  0  0  0  0  0  0  0  0  0  0  0
    5.6650   -1.6459   21.5847 H   0  0  0  0  0  0  0  0  0  0  0  0
    7.3685   -2.0624   20.9112 H   0  0  0  0  0  0  0  0  0  0  0  0
    7.7072   -4.3091   20.6428 H   0  0  0  0  0  0  0  0  0  0  0  0
   12.5004   -2.2346   17.5031 H   0  0  0  0  0  0  0  0  0  0  0  0
    9.5758   -1.1702   16.3444 H   0  0  0  0  0  0  0  0  0  0  0  0
    8.5846   -0.8194   19.1635 H   0  0  0  0  0  0  0  0  0  0  0  0
    6.4499   -1.2564   27.2237 H   0  0  0  0  0  0  0  0  0  0  0  0
    5.5772   -2.2167   29.9753 H   0  0  0  0  0  0  0  0  0  0  0  0
    3.6567   -3.1173   31.2106 H   0  0  0  0  0  0  0  0  0  0  0  0
    2.0171   -5.0255   31.3231 H   0  0  0  0  0  0  0  0  0  0  0  0
    1.2039   -2.8128   27.6706 H   0  0  0  0  0  0  0  0  0  0  0  0
    2.7147   -1.9750   25.4661 H   0  0  0  0  0  0  0  0  0  0  0  0
  1  2  2  0
  2  3  1  0
  3  4  1  0
  4  5  1  0
  5  6  1  0
  6  7  2  0
  7  8  1  0
  8  9  2  0
  9 10  1  0
  2 11  1  0
 11 12  2  0
 12 13  1  0
 13 14  2  0
 14 15  1  0
 15 16  2  0
 16 17  1  0
 17 18  1  0
 18 19  1  0
 18 20  1  0
 16 21  1  0
 21 22  2  0
 22 23  1  0
 10  6  1  0
 23 11  1  0
 22 13  1  0
  3 24  1  0
  4 25  1  0
  4 26  1  0
  5 27  1  0
  5 28  1  0
  8 29  1  0
  9 30  1  0
 10 31  1  0
 12 32  1  0
 14 33  1  0
 15 34  1  0
 18 35  1  0
 21 36  1  0
 23 37  1  0
M  END
>  <Energy>  (1339) 
1066.9888636757566

>  <compound_id>  (1339) 
47226

>  <target_id>  (1339) 
1

>  <reference_id>  (1339) 
80

>  <inspiration_ids>  (1339) 
[40, 80]

>  <energy_score>  (1339) 
1052.0798531197645

>  <distance_score>  (1339) 
6.667067084479933

>  <path>  (1339) 
/opt/xchem-fragalysis-2/maxwin/BulkDock/SCRATCH/511023/C47226-P80/C47226-P80.minimised.mol

>  <scratch_subdir>  (1339) 
/opt/xchem-fragalysis-2/maxwin/BulkDock/SCRATCH/511023/C47226-P80

>  <fragmenstein_runtime>  (1339) 
14.266565322875977

>  <fragmenstein_outcome>  (1339) 
too moved

>  <fragmenstein_mode>  (1339) 
expansion

>  <fragmenstein_error>  (1339) 


$$$$
C47227-P40
     RDKit          3D

 33 35  0  0  0  0  0  0  0  0999 V2000
    5.5424   -2.3186   24.1529 C   0  0  0  0  0  0  0  0  0  0  0  0
    6.3463   -3.3013   22.8957 C   0  0  0  0  0  0  0  0  0  0  0  0
    6.3061   -4.7466   23.7193 N   0  0  0  0  0  0  0  0  0  0  0  0
    6.3061   -5.0275   25.1468 C   0  0  0  0  0  0  0  0  0  0  0  0
    6.4181   -4.2938   26.0872 O   0  0  0  0  0  0  0  0  0  0  0  0
    6.0209   -6.4247   25.5050 C   0  0  0  0  0  0  0  0  0  0  0  0
    4.7089   -6.8701   25.3021 N   0  0  0  0  0  0  0  0  0  0  0  0
    4.0643   -6.5354   26.4915 C   0  0  0  0  0  0  0  0  0  0  0  0
    2.7974   -6.0154   26.7400 C   0  0  0  0  0  0  0  0  0  0  0  0
    2.4770   -5.6663   28.0503 C   0  0  0  0  0  0  0  0  0  0  0  0
    3.4047   -5.8516   29.0670 C   0  0  0  0  0  0  0  0  0  0  0  0
    4.6757   -6.3920   28.8081 C   0  0  0  0  0  0  0  0  0  0  0  0
    5.0306   -6.6917   27.4805 C   0  0  0  0  0  0  0  0  0  0  0  0
    6.2588   -6.9506   26.7831 C   0  0  0  0  0  0  0  0  0  0  0  0
    7.7763   -7.1275   27.5384 Cl  0  0  0  0  0  0  0  0  0  0  0  0
    7.3722   -2.8413   21.3185 C   0  0  0  0  0  0  0  0  0  0  0  0
    6.8164   -1.4509   20.6640 N   0  0  0  0  0  0  0  0  0  0  0  0
    7.3399   -0.5561   19.7427 C   0  0  0  0  0  0  0  0  0  0  0  0
    8.5190   -1.1315   19.4377 C   0  0  0  0  0  0  0  0  0  0  0  0
    9.1039   -2.8322   20.5091 N   0  0  0  0  0  0  0  0  0  0  0  0
    6.1946   -1.9880   24.9721 H   0  0  0  0  0  0  0  0  0  0  0  0
    4.9588   -1.5015   23.7100 H   0  0  0  0  0  0  0  0  0  0  0  0
    4.8006   -2.9055   24.7171 H   0  0  0  0  0  0  0  0  0  0  0  0
    5.5635   -2.9678   22.1914 H   0  0  0  0  0  0  0  0  0  0  0  0
    6.2726   -5.6167   23.2131 H   0  0  0  0  0  0  0  0  0  0  0  0
    4.2475   -6.7594   24.4144 H   0  0  0  0  0  0  0  0  0  0  0  0
    2.1311   -5.8104   25.9197 H   0  0  0  0  0  0  0  0  0  0  0  0
    1.5241   -5.1917   28.2719 H   0  0  0  0  0  0  0  0  0  0  0  0
    3.1637   -5.5016   30.0677 H   0  0  0  0  0  0  0  0  0  0  0  0
    5.4279   -6.4354   29.5907 H   0  0  0  0  0  0  0  0  0  0  0  0
    6.9601    0.4071   19.4581 H   0  0  0  0  0  0  0  0  0  0  0  0
    9.1523   -0.2540   19.6812 H   0  0  0  0  0  0  0  0  0  0  0  0
    8.9819   -3.7589   20.0590 H   0  0  0  0  0  0  0  0  0  0  0  0
  1  2  1  0
  2  3  1  0
  3  4  1  0
  4  5  2  0
  4  6  1  0
  6  7  1  0
  7  8  1  0
  8  9  2  0
  9 10  1  0
 10 11  2  0
 11 12  1  0
 12 13  2  0
 13 14  1  0
 14 15  1  0
  2 16  1  0
 16 17  2  0
 17 18  1  0
 18 19  2  0
 19 20  1  0
 14  6  2  0
 20 16  1  0
 13  8  1  0
  1 21  1  0
  1 22  1  0
  1 23  1  0
  2 24  1  0
  3 25  1  0
  7 26  1  0
  9 27  1  0
 10 28  1  0
 11 29  1  0
 12 30  1  0
 18 31  1  0
 19 32  1  0
 20 33  1  0
M  END
>  <Energy>  (1340) 
537.05841041237591

>  <compound_id>  (1340) 
47227

>  <target_id>  (1340) 
1

>  <reference_id>  (1340) 
40

>  <inspiration_ids>  (1340) 
[40, 80]

>  <energy_score>  (1340) 
543.4542388861381

>  <distance_score>  (1340) 
7.061601503063262

>  <path>  (1340) 
/opt/xchem-fragalysis-2/maxwin/BulkDock/SCRATCH/511023/C47227-P40/C47227-P40.minimised.mol

>  <scratch_subdir>  (1340) 
/opt/xchem-fragalysis-2/maxwin/BulkDock/SCRATCH/511023/C47227-P40

>  <fragmenstein_runtime>  (1340) 
6.95183253288269

>  <fragmenstein_outcome>  (1340) 
too moved

>  <fragmenstein_mode>  (1340) 
expansion

>  <fragmenstein_error>  (1340) 


$$$$
C47227-P80
     RDKit          3D

 33 35  0  0  0  0  0  0  0  0999 V2000
    4.7061   -1.5680   23.6719 C   0  0  0  0  0  0  0  0  0  0  0  0
    5.6669   -2.4688   24.2397 C   0  0  0  0  0  0  0  0  0  0  0  0
    5.9337   -1.9773   25.6300 N   0  0  0  0  0  0  0  0  0  0  0  0
    5.1467   -1.1542   26.5055 C   0  0  0  0  0  0  0  0  0  0  0  0
    4.1149   -0.5747   26.3175 O   0  0  0  0  0  0  0  0  0  0  0  0
    5.6268   -1.0992   27.8862 C   0  0  0  0  0  0  0  0  0  0  0  0
    4.6627   -0.7685   28.8426 N   0  0  0  0  0  0  0  0  0  0  0  0
    4.5603   -1.8244   29.7309 C   0  0  0  0  0  0  0  0  0  0  0  0
    3.5079   -2.2048   30.5733 C   0  0  0  0  0  0  0  0  0  0  0  0
    3.6854   -3.3574   31.3421 C   0  0  0  0  0  0  0  0  0  0  0  0
    4.8781   -4.0763   31.2847 C   0  0  0  0  0  0  0  0  0  0  0  0
    5.9251   -3.6692   30.4453 C   0  0  0  0  0  0  0  0  0  0  0  0
    5.7565   -2.5310   29.6265 C   0  0  0  0  0  0  0  0  0  0  0  0
    6.5178   -1.9119   28.5746 C   0  0  0  0  0  0  0  0  0  0  0  0
    8.0474   -2.4605   28.0585 Cl  0  0  0  0  0  0  0  0  0  0  0  0
    6.5951   -3.5774   22.8368 C   0  0  0  0  0  0  0  0  0  0  0  0
    7.6125   -4.3773   22.4564 N   0  0  0  0  0  0  0  0  0  0  0  0
    7.8213   -4.4286   20.7050 C   0  0  0  0  0  0  0  0  0  0  0  0
    6.4741   -4.4532   19.8767 C   0  0  0  0  0  0  0  0  0  0  0  0
    5.9542   -3.1163   21.1179 N   0  0  0  0  0  0  0  0  0  0  0  0
    4.9032   -1.4364   22.6353 H   0  0  0  0  0  0  0  0  0  0  0  0
    3.7070   -1.9954   23.8438 H   0  0  0  0  0  0  0  0  0  0  0  0
    4.7895   -0.5981   24.1526 H   0  0  0  0  0  0  0  0  0  0  0  0
    4.8873   -3.1445   24.6676 H   0  0  0  0  0  0  0  0  0  0  0  0
    6.7036   -2.3731   26.1526 H   0  0  0  0  0  0  0  0  0  0  0  0
    3.8577   -0.2153   28.5830 H   0  0  0  0  0  0  0  0  0  0  0  0
    2.5824   -1.6395   30.6170 H   0  0  0  0  0  0  0  0  0  0  0  0
    2.8868   -3.6892   32.0027 H   0  0  0  0  0  0  0  0  0  0  0  0
    5.0022   -4.9553   31.9119 H   0  0  0  0  0  0  0  0  0  0  0  0
    6.8453   -4.2438   30.3978 H   0  0  0  0  0  0  0  0  0  0  0  0
    8.7435   -4.6235   20.2275 H   0  0  0  0  0  0  0  0  0  0  0  0
    5.4161   -4.4421   19.6606 H   0  0  0  0  0  0  0  0  0  0  0  0
    6.1905   -2.2129   20.7336 H   0  0  0  0  0  0  0  0  0  0  0  0
  1  2  1  0
  2  3  1  0
  3  4  1  0
  4  5  2  0
  4  6  1  0
  6  7  1  0
  7  8  1  0
  8  9  2  0
  9 10  1  0
 10 11  2  0
 11 12  1  0
 12 13  2  0
 13 14  1  0
 14 15  1  0
  2 16  1  0
 16 17  2  0
 17 18  1  0
 18 19  2  0
 19 20  1  0
 14  6  2  0
 20 16  1  0
 13  8  1  0
  1 21  1  0
  1 22  1  0
  1 23  1  0
  2 24  1  0
  3 25  1  0
  7 26  1  0
  9 27  1  0
 10 28  1  0
 11 29  1  0
 12 30  1  0
 18 31  1  0
 19 32  1  0
 20 33  1  0
M  END
>  <Energy>  (1341) 
341.13866708779614

>  <compound_id>  (1341) 
47227

>  <target_id>  (1341) 
1

>  <reference_id>  (1341) 
80

>  <inspiration_ids>  (1341) 
[40, 80]

>  <energy_score>  (1341) 
347.5344955615538

>  <distance_score>  (1341) 
7.595279568247839

>  <path>  (1341) 
/opt/xchem-fragalysis-2/maxwin/BulkDock/SCRATCH/511023/C47227-P80/C47227-P80.minimised.mol

>  <scratch_subdir>  (1341) 
/opt/xchem-fragalysis-2/maxwin/BulkDock/SCRATCH/511023/C47227-P80

>  <fragmenstein_runtime>  (1341) 
10.154004096984863

>  <fragmenstein_outcome>  (1341) 
too moved

>  <fragmenstein_mode>  (1341) 
expansion

>  <fragmenstein_error>  (1341) 


$$$$
C47228-P40
     RDKit          3D

 33 35  0  0  0  0  0  0  0  0999 V2000
    2.9457   -8.9760   25.3154 O   0  0  0  0  0  0  0  0  0  0  0  0
    3.7546   -8.1475   25.2098 C   0  0  0  0  0  0  0  0  0  0  0  0
    4.8832   -7.9848   24.1824 N   0  0  0  0  0  0  0  0  0  0  0  0
    5.3334   -8.8928   23.0788 C   0  0  0  0  0  0  0  0  0  0  0  0
    6.5920   -8.3654   22.4010 C   0  0  0  0  0  0  0  0  0  0  0  0
    7.1252   -8.7423   20.9875 C   0  0  0  0  0  0  0  0  0  0  0  0
    8.4044   -8.9717   20.6758 N   0  0  0  0  0  0  0  0  0  0  0  0
    8.4037   -9.5452   19.4479 C   0  0  0  0  0  0  0  0  0  0  0  0
    7.1380   -9.5104   18.9401 C   0  0  0  0  0  0  0  0  0  0  0  0
    6.4083   -8.7648   19.8224 N   0  0  0  0  0  0  0  0  0  0  0  0
    3.6106   -7.0745   26.2203 C   0  0  0  0  0  0  0  0  0  0  0  0
    2.7545   -7.3223   27.2830 N   0  0  0  0  0  0  0  0  0  0  0  0
    2.3817   -6.2140   27.9865 C   0  0  0  0  0  0  0  0  0  0  0  0
    1.4142   -6.0212   28.9877 C   0  0  0  0  0  0  0  0  0  0  0  0
    1.2250   -4.7262   29.4593 C   0  0  0  0  0  0  0  0  0  0  0  0
    1.9943   -3.6899   28.9444 C   0  0  0  0  0  0  0  0  0  0  0  0
    2.9895   -3.9192   27.9853 C   0  0  0  0  0  0  0  0  0  0  0  0
    3.1841   -5.2099   27.4791 C   0  0  0  0  0  0  0  0  0  0  0  0
    4.0471   -5.7977   26.4875 C   0  0  0  0  0  0  0  0  0  0  0  0
    5.3024   -4.9641   25.7071 Cl  0  0  0  0  0  0  0  0  0  0  0  0
    5.3554   -7.0986   24.3355 H   0  0  0  0  0  0  0  0  0  0  0  0
    4.4966   -9.0235   22.3914 H   0  0  0  0  0  0  0  0  0  0  0  0
    5.5125   -9.8747   23.5304 H   0  0  0  0  0  0  0  0  0  0  0  0
    7.3956   -8.6203   23.1084 H   0  0  0  0  0  0  0  0  0  0  0  0
    6.5009   -7.2790   22.4204 H   0  0  0  0  0  0  0  0  0  0  0  0
    9.2726  -10.0458   19.0487 H   0  0  0  0  0  0  0  0  0  0  0  0
    6.6887   -9.9652   18.0664 H   0  0  0  0  0  0  0  0  0  0  0  0
    5.4151   -8.6094   19.7488 H   0  0  0  0  0  0  0  0  0  0  0  0
    2.3068   -8.2224   27.3260 H   0  0  0  0  0  0  0  0  0  0  0  0
    0.8086   -6.8382   29.3643 H   0  0  0  0  0  0  0  0  0  0  0  0
    0.4727   -4.5163   30.2152 H   0  0  0  0  0  0  0  0  0  0  0  0
    1.8377   -2.6747   29.3074 H   0  0  0  0  0  0  0  0  0  0  0  0
    3.5858   -3.0855   27.6196 H   0  0  0  0  0  0  0  0  0  0  0  0
  1  2  2  0
  2  3  1  0
  3  4  1  0
  4  5  1  0
  5  6  1  0
  6  7  2  0
  7  8  1  0
  8  9  2  0
  9 10  1  0
  2 11  1  0
 11 12  1  0
 12 13  1  0
 13 14  2  0
 14 15  1  0
 15 16  2  0
 16 17  1  0
 17 18  2  0
 18 19  1  0
 19 20  1  0
 10  6  1  0
 19 11  2  0
 18 13  1  0
  3 21  1  0
  4 22  1  0
  4 23  1  0
  5 24  1  0
  5 25  1  0
  8 26  1  0
  9 27  1  0
 10 28  1  0
 12 29  1  0
 14 30  1  0
 15 31  1  0
 16 32  1  0
 17 33  1  0
M  END
>  <Energy>  (1342) 
21.561028211753861

>  <compound_id>  (1342) 
47228

>  <target_id>  (1342) 
1

>  <reference_id>  (1342) 
40

>  <inspiration_ids>  (1342) 
[40, 80]

>  <energy_score>  (1342) 
17.942695128527077

>  <distance_score>  (1342) 
7.398647986918642

>  <path>  (1342) 
/opt/xchem-fragalysis-2/maxwin/BulkDock/SCRATCH/511023/C47228-P40/C47228-P40.minimised.mol

>  <scratch_subdir>  (1342) 
/opt/xchem-fragalysis-2/maxwin/BulkDock/SCRATCH/511023/C47228-P40

>  <fragmenstein_runtime>  (1342) 
6.823777914047241

>  <fragmenstein_outcome>  (1342) 
too moved

>  <fragmenstein_mode>  (1342) 
expansion

>  <fragmenstein_error>  (1342) 


$$$$
C47228-P80
     RDKit          3D

 33 35  0  0  0  0  0  0  0  0999 V2000
    0.4287   -6.6233   26.9412 O   0  0  0  0  0  0  0  0  0  0  0  0
    1.0158   -5.5845   26.6146 C   0  0  0  0  0  0  0  0  0  0  0  0
    2.3940   -5.3766   25.4704 N   0  0  0  0  0  0  0  0  0  0  0  0
    3.4961   -6.7360   24.5176 C   0  0  0  0  0  0  0  0  0  0  0  0
    5.2795   -7.3235   23.7514 C   0  0  0  0  0  0  0  0  0  0  0  0
    6.6867   -6.6821   22.7235 C   0  0  0  0  0  0  0  0  0  0  0  0
    6.8327   -6.9601   21.3547 N   0  0  0  0  0  0  0  0  0  0  0  0
    7.1042   -5.4507   20.2341 C   0  0  0  0  0  0  0  0  0  0  0  0
    7.9141   -4.6856   21.1658 C   0  0  0  0  0  0  0  0  0  0  0  0
    7.4701   -5.3741   22.7615 N   0  0  0  0  0  0  0  0  0  0  0  0
    0.5306   -4.4037   27.4341 C   0  0  0  0  0  0  0  0  0  0  0  0
    1.0850   -3.1259   27.5068 N   0  0  0  0  0  0  0  0  0  0  0  0
    0.6696   -2.4440   28.6233 C   0  0  0  0  0  0  0  0  0  0  0  0
    0.9188   -1.1269   29.0148 C   0  0  0  0  0  0  0  0  0  0  0  0
    0.4626   -0.7362   30.2758 C   0  0  0  0  0  0  0  0  0  0  0  0
   -0.1971   -1.6328   31.1110 C   0  0  0  0  0  0  0  0  0  0  0  0
   -0.4313   -2.9464   30.7029 C   0  0  0  0  0  0  0  0  0  0  0  0
   -0.0132   -3.3487   29.4213 C   0  0  0  0  0  0  0  0  0  0  0  0
   -0.0116   -4.5786   28.7220 C   0  0  0  0  0  0  0  0  0  0  0  0
   -0.3335   -6.0532   29.5540 Cl  0  0  0  0  0  0  0  0  0  0  0  0
    2.6065   -4.3359   25.3438 H   0  0  0  0  0  0  0  0  0  0  0  0
    2.7836   -7.3606   24.0229 H   0  0  0  0  0  0  0  0  0  0  0  0
    4.0853   -5.8637   24.7146 H   0  0  0  0  0  0  0  0  0  0  0  0
    4.9792   -8.1336   23.0629 H   0  0  0  0  0  0  0  0  0  0  0  0
    5.8260   -7.9067   24.5177 H   0  0  0  0  0  0  0  0  0  0  0  0
    6.6935   -5.4312   19.2192 H   0  0  0  0  0  0  0  0  0  0  0  0
    7.9955   -3.6456   21.2853 H   0  0  0  0  0  0  0  0  0  0  0  0
    7.3156   -4.6918   23.4828 H   0  0  0  0  0  0  0  0  0  0  0  0
    1.6827   -2.7123   26.8005 H   0  0  0  0  0  0  0  0  0  0  0  0
    1.4640   -0.4363   28.3793 H   0  0  0  0  0  0  0  0  0  0  0  0
    0.6430    0.2808   30.6174 H   0  0  0  0  0  0  0  0  0  0  0  0
   -0.5225   -1.3121   32.0981 H   0  0  0  0  0  0  0  0  0  0  0  0
   -0.9183   -3.6450   31.3767 H   0  0  0  0  0  0  0  0  0  0  0  0
  1  2  2  0
  2  3  1  0
  3  4  1  0
  4  5  1  0
  5  6  1  0
  6  7  2  0
  7  8  1  0
  8  9  2  0
  9 10  1  0
  2 11  1  0
 11 12  1  0
 12 13  1  0
 13 14  2  0
 14 15  1  0
 15 16  2  0
 16 17  1  0
 17 18  2  0
 18 19  1  0
 19 20  1  0
 10  6  1  0
 19 11  2  0
 18 13  1  0
  3 21  1  0
  4 22  1  0
  4 23  1  0
  5 24  1  0
  5 25  1  0
  8 26  1  0
  9 27  1  0
 10 28  1  0
 12 29  1  0
 14 30  1  0
 15 31  1  0
 16 32  1  0
 17 33  1  0
M  END
>  <Energy>  (1343) 
476.16342309435248

>  <compound_id>  (1343) 
47228

>  <target_id>  (1343) 
1

>  <reference_id>  (1343) 
80

>  <inspiration_ids>  (1343) 
[40, 80]

>  <energy_score>  (1343) 
472.64051075488896

>  <distance_score>  (1343) 
6.445916410495353

>  <path>  (1343) 
/opt/xchem-fragalysis-2/maxwin/BulkDock/SCRATCH/511023/C47228-P80/C47228-P80.minimised.mol

>  <scratch_subdir>  (1343) 
/opt/xchem-fragalysis-2/maxwin/BulkDock/SCRATCH/511023/C47228-P80

>  <fragmenstein_runtime>  (1343) 
7.775218963623047

>  <fragmenstein_outcome>  (1343) 
too moved

>  <fragmenstein_mode>  (1343) 
expansion

>  <fragmenstein_error>  (1343) 


$$$$
C25220-P40
     RDKit          3D

 43 45  0  0  0  0  0  0  0  0999 V2000
    9.1599   -7.1229   28.7522 C   0  0  0  0  0  0  0  0  0  0  0  0
    8.6384   -6.4291   27.6265 O   0  0  0  0  0  0  0  0  0  0  0  0
    7.9132   -5.2560   28.0176 C   0  0  0  0  0  0  0  0  0  0  0  0
    7.2672   -4.6155   26.7871 C   0  0  0  0  0  0  0  0  0  0  0  0
    6.1226   -5.3611   26.2817 N   0  0  0  0  0  0  0  0  0  0  0  0
    5.9025   -5.7033   24.9454 C   0  0  0  0  0  0  0  0  0  0  0  0
    6.2210   -4.7455   23.8642 C   0  0  0  0  0  0  0  0  0  0  0  0
    5.9199   -3.6021   24.1678 O   0  0  0  0  0  0  0  0  0  0  0  0
    6.9613   -5.3005   22.5990 N   0  0  0  0  0  0  0  0  0  0  0  0
    7.8084   -4.3676   21.0772 C   0  0  0  0  0  0  0  0  0  0  0  0
    9.8181   -4.9885   20.7076 C   0  0  0  0  0  0  0  0  0  0  0  0
   11.3767   -4.4710   21.3912 C   0  0  0  0  0  0  0  0  0  0  0  0
   12.6298   -4.6913   20.8180 C   0  0  0  0  0  0  0  0  0  0  0  0
   13.6190   -4.0304   21.4898 N   0  0  0  0  0  0  0  0  0  0  0  0
   13.0057   -3.4168   22.4695 C   0  0  0  0  0  0  0  0  0  0  0  0
   11.6626   -3.6721   22.4708 N   0  0  0  0  0  0  0  0  0  0  0  0
    5.0507   -6.7918   25.0262 C   0  0  0  0  0  0  0  0  0  0  0  0
    4.3625   -6.6483   26.2797 C   0  0  0  0  0  0  0  0  0  0  0  0
    3.2069   -7.2163   26.8246 C   0  0  0  0  0  0  0  0  0  0  0  0
    2.6299   -6.6510   27.9761 C   0  0  0  0  0  0  0  0  0  0  0  0
    3.2455   -5.6021   28.6475 C   0  0  0  0  0  0  0  0  0  0  0  0
    4.4589   -5.0964   28.1881 C   0  0  0  0  0  0  0  0  0  0  0  0
    4.9787   -5.6318   26.9973 C   0  0  0  0  0  0  0  0  0  0  0  0
    9.8386   -6.4784   29.3190 H   0  0  0  0  0  0  0  0  0  0  0  0
    9.7193   -7.9907   28.3929 H   0  0  0  0  0  0  0  0  0  0  0  0
    8.3469   -7.4736   29.3952 H   0  0  0  0  0  0  0  0  0  0  0  0
    8.6271   -4.5465   28.4520 H   0  0  0  0  0  0  0  0  0  0  0  0
    7.1755   -5.5154   28.7832 H   0  0  0  0  0  0  0  0  0  0  0  0
    6.9232   -3.5984   26.9985 H   0  0  0  0  0  0  0  0  0  0  0  0
    8.0252   -4.6066   26.0043 H   0  0  0  0  0  0  0  0  0  0  0  0
    6.9669   -6.3181   22.6329 H   0  0  0  0  0  0  0  0  0  0  0  0
    7.5639   -3.3291   21.2988 H   0  0  0  0  0  0  0  0  0  0  0  0
    7.2173   -4.6015   20.1511 H   0  0  0  0  0  0  0  0  0  0  0  0
   10.2195   -5.9930   21.0174 H   0  0  0  0  0  0  0  0  0  0  0  0
    9.9266   -5.3491   19.6782 H   0  0  0  0  0  0  0  0  0  0  0  0
   12.8579   -5.2350   19.9132 H   0  0  0  0  0  0  0  0  0  0  0  0
   13.4653   -2.7675   23.2024 H   0  0  0  0  0  0  0  0  0  0  0  0
   11.0056   -3.2511   23.1118 H   0  0  0  0  0  0  0  0  0  0  0  0
    4.6989   -7.3870   24.1948 H   0  0  0  0  0  0  0  0  0  0  0  0
    2.7657   -8.0533   26.2968 H   0  0  0  0  0  0  0  0  0  0  0  0
    1.6829   -7.0251   28.3515 H   0  0  0  0  0  0  0  0  0  0  0  0
    2.7874   -5.1706   29.5337 H   0  0  0  0  0  0  0  0  0  0  0  0
    4.9528   -4.2782   28.7021 H   0  0  0  0  0  0  0  0  0  0  0  0
  1  2  1  0
  2  3  1  0
  3  4  1  0
  4  5  1  0
  5  6  1  0
  6  7  1  0
  7  8  2  0
  7  9  1  0
  9 10  1  0
 10 11  1  0
 11 12  1  0
 12 13  2  0
 13 14  1  0
 14 15  2  0
 15 16  1  0
  6 17  2  0
 17 18  1  0
 18 19  2  0
 19 20  1  0
 20 21  2  0
 21 22  1  0
 22 23  2  0
 23  5  1  0
 16 12  1  0
 23 18  1  0
  1 24  1  0
  1 25  1  0
  1 26  1  0
  3 27  1  0
  3 28  1  0
  4 29  1  0
  4 30  1  0
  9 31  1  0
 10 32  1  0
 10 33  1  0
 11 34  1  0
 11 35  1  0
 13 36  1  0
 15 37  1  0
 16 38  1  0
 17 39  1  0
 19 40  1  0
 20 41  1  0
 21 42  1  0
 22 43  1  0
M  END
>  <Energy>  (1344) 
257.87492096586004

>  <compound_id>  (1344) 
25220

>  <target_id>  (1344) 
1

>  <reference_id>  (1344) 
40

>  <inspiration_ids>  (1344) 
[40, 80]

>  <energy_score>  (1344) 
232.51804072090124

>  <distance_score>  (1344) 
7.203847156946696

>  <path>  (1344) 
/opt/xchem-fragalysis-2/maxwin/BulkDock/SCRATCH/511023/C25220-P40/C25220-P40.minimised.mol

>  <scratch_subdir>  (1344) 
/opt/xchem-fragalysis-2/maxwin/BulkDock/SCRATCH/511023/C25220-P40

>  <fragmenstein_runtime>  (1344) 
24.834349393844604

>  <fragmenstein_outcome>  (1344) 
too moved

>  <fragmenstein_mode>  (1344) 
expansion

>  <fragmenstein_error>  (1344) 


$$$$
C25220-P80
     RDKit          3D

 43 45  0  0  0  0  0  0  0  0999 V2000
    4.9927   -4.3769   32.2977 C   0  0  0  0  0  0  0  0  0  0  0  0
    4.9062   -3.3910   31.2793 O   0  0  0  0  0  0  0  0  0  0  0  0
    4.6220   -3.9627   29.9983 C   0  0  0  0  0  0  0  0  0  0  0  0
    4.1417   -2.8697   29.0349 C   0  0  0  0  0  0  0  0  0  0  0  0
    2.7510   -2.4785   29.2842 N   0  0  0  0  0  0  0  0  0  0  0  0
    2.4838   -1.3752   30.0694 C   0  0  0  0  0  0  0  0  0  0  0  0
    3.2217   -0.1067   29.9108 C   0  0  0  0  0  0  0  0  0  0  0  0
    3.4075    0.6034   30.8212 O   0  0  0  0  0  0  0  0  0  0  0  0
    3.7289   -0.0146   28.4375 N   0  0  0  0  0  0  0  0  0  0  0  0
    4.6459    0.9208   27.8140 C   0  0  0  0  0  0  0  0  0  0  0  0
    5.8063    0.2208   27.0126 C   0  0  0  0  0  0  0  0  0  0  0  0
    5.3290   -0.7578   26.0370 C   0  0  0  0  0  0  0  0  0  0  0  0
    6.0708   -1.7816   25.5533 C   0  0  0  0  0  0  0  0  0  0  0  0
    5.5308   -2.2615   24.4037 N   0  0  0  0  0  0  0  0  0  0  0  0
    4.3434   -1.7879   24.3849 C   0  0  0  0  0  0  0  0  0  0  0  0
    4.2882   -0.6909   25.1718 N   0  0  0  0  0  0  0  0  0  0  0  0
    1.6679   -1.9381   31.0638 C   0  0  0  0  0  0  0  0  0  0  0  0
    1.1854   -3.2051   30.6028 C   0  0  0  0  0  0  0  0  0  0  0  0
    0.3701   -4.2413   31.0857 C   0  0  0  0  0  0  0  0  0  0  0  0
   -0.0664   -5.2290   30.2028 C   0  0  0  0  0  0  0  0  0  0  0  0
    0.1870   -5.1083   28.8515 C   0  0  0  0  0  0  0  0  0  0  0  0
    1.0841   -4.1470   28.3795 C   0  0  0  0  0  0  0  0  0  0  0  0
    1.6563   -3.3003   29.3068 C   0  0  0  0  0  0  0  0  0  0  0  0
    5.2651   -3.8829   33.2341 H   0  0  0  0  0  0  0  0  0  0  0  0
    5.7621   -5.1152   32.0523 H   0  0  0  0  0  0  0  0  0  0  0  0
    4.0253   -4.8702   32.4330 H   0  0  0  0  0  0  0  0  0  0  0  0
    5.5592   -4.3919   29.6268 H   0  0  0  0  0  0  0  0  0  0  0  0
    3.8827   -4.7639   30.0997 H   0  0  0  0  0  0  0  0  0  0  0  0
    4.7965   -2.0101   29.1975 H   0  0  0  0  0  0  0  0  0  0  0  0
    4.1909   -3.0896   27.9712 H   0  0  0  0  0  0  0  0  0  0  0  0
    3.3106   -0.7554   27.8883 H   0  0  0  0  0  0  0  0  0  0  0  0
    4.0501    1.5445   27.1392 H   0  0  0  0  0  0  0  0  0  0  0  0
    5.0669    1.5626   28.5942 H   0  0  0  0  0  0  0  0  0  0  0  0
    6.4399   -0.2904   27.7502 H   0  0  0  0  0  0  0  0  0  0  0  0
    6.4174    1.0157   26.5848 H   0  0  0  0  0  0  0  0  0  0  0  0
    7.0563   -2.0615   25.9227 H   0  0  0  0  0  0  0  0  0  0  0  0
    3.5116   -2.1850   23.8292 H   0  0  0  0  0  0  0  0  0  0  0  0
    3.5505   -0.0069   25.1099 H   0  0  0  0  0  0  0  0  0  0  0  0
    1.4166   -1.4511   31.9971 H   0  0  0  0  0  0  0  0  0  0  0  0
    0.0602   -4.2580   32.1267 H   0  0  0  0  0  0  0  0  0  0  0  0
   -0.6591   -6.0558   30.5819 H   0  0  0  0  0  0  0  0  0  0  0  0
   -0.2340   -5.8324   28.1581 H   0  0  0  0  0  0  0  0  0  0  0  0
    1.3975   -4.1170   27.3480 H   0  0  0  0  0  0  0  0  0  0  0  0
  1  2  1  0
  2  3  1  0
  3  4  1  0
  4  5  1  0
  5  6  1  0
  6  7  1  0
  7  8  2  0
  7  9  1  0
  9 10  1  0
 10 11  1  0
 11 12  1  0
 12 13  2  0
 13 14  1  0
 14 15  2  0
 15 16  1  0
  6 17  2  0
 17 18  1  0
 18 19  2  0
 19 20  1  0
 20 21  2  0
 21 22  1  0
 22 23  2  0
 23  5  1  0
 16 12  1  0
 23 18  1  0
  1 24  1  0
  1 25  1  0
  1 26  1  0
  3 27  1  0
  3 28  1  0
  4 29  1  0
  4 30  1  0
  9 31  1  0
 10 32  1  0
 10 33  1  0
 11 34  1  0
 11 35  1  0
 13 36  1  0
 15 37  1  0
 16 38  1  0
 17 39  1  0
 19 40  1  0
 20 41  1  0
 21 42  1  0
 22 43  1  0
M  END
>  <Energy>  (1345) 
65.574915709476969

>  <compound_id>  (1345) 
25220

>  <target_id>  (1345) 
1

>  <reference_id>  (1345) 
80

>  <inspiration_ids>  (1345) 
[40, 80]

>  <energy_score>  (1345) 
32.68049042542094

>  <distance_score>  (1345) 
8.329475190002176

>  <path>  (1345) 
/opt/xchem-fragalysis-2/maxwin/BulkDock/SCRATCH/511023/C25220-P80/C25220-P80.minimised.mol

>  <scratch_subdir>  (1345) 
/opt/xchem-fragalysis-2/maxwin/BulkDock/SCRATCH/511023/C25220-P80

>  <fragmenstein_runtime>  (1345) 
11.780184507369995

>  <fragmenstein_outcome>  (1345) 
too moved

>  <fragmenstein_mode>  (1345) 
expansion

>  <fragmenstein_error>  (1345) 


$$$$
C47229-P40
     RDKit          3D

 33 35  0  0  0  0  0  0  0  0999 V2000
    5.9402   -6.9100   25.1593 O   0  0  0  0  0  0  0  0  0  0  0  0
    5.9012   -5.7356   24.9471 C   0  0  0  0  0  0  0  0  0  0  0  0
    6.3699   -4.9707   23.8224 N   0  0  0  0  0  0  0  0  0  0  0  0
    6.9569   -5.4012   22.5340 C   0  0  0  0  0  0  0  0  0  0  0  0
    7.9203   -4.3863   21.0184 C   0  0  0  0  0  0  0  0  0  0  0  0
    9.9510   -4.9699   20.8507 C   0  0  0  0  0  0  0  0  0  0  0  0
   10.5983   -6.1672   21.0402 N   0  0  0  0  0  0  0  0  0  0  0  0
   11.9399   -6.0884   21.4145 C   0  0  0  0  0  0  0  0  0  0  0  0
   12.3399   -4.8113   21.5752 C   0  0  0  0  0  0  0  0  0  0  0  0
   11.1793   -4.1212   21.5145 N   0  0  0  0  0  0  0  0  0  0  0  0
    5.1743   -4.9125   25.9328 C   0  0  0  0  0  0  0  0  0  0  0  0
    5.3308   -3.5706   26.2188 N   0  0  0  0  0  0  0  0  0  0  0  0
    4.3420   -3.1295   27.0829 C   0  0  0  0  0  0  0  0  0  0  0  0
    4.0668   -1.8488   27.5760 C   0  0  0  0  0  0  0  0  0  0  0  0
    2.9700   -1.7006   28.4348 C   0  0  0  0  0  0  0  0  0  0  0  0
    2.1837   -2.7897   28.7972 C   0  0  0  0  0  0  0  0  0  0  0  0
    2.4805   -4.0649   28.3165 C   0  0  0  0  0  0  0  0  0  0  0  0
    3.5745   -4.2338   27.4418 C   0  0  0  0  0  0  0  0  0  0  0  0
    4.1379   -5.3271   26.7547 C   0  0  0  0  0  0  0  0  0  0  0  0
    3.4245   -7.0454   26.9103 Br  0  0  0  0  0  0  0  0  0  0  0  0
    6.2465   -3.9897   24.0176 H   0  0  0  0  0  0  0  0  0  0  0  0
    6.4722   -6.2592   22.0402 H   0  0  0  0  0  0  0  0  0  0  0  0
    7.2608   -6.3474   23.0528 H   0  0  0  0  0  0  0  0  0  0  0  0
    7.6595   -3.3551   21.2579 H   0  0  0  0  0  0  0  0  0  0  0  0
    7.3492   -4.5614   20.0764 H   0  0  0  0  0  0  0  0  0  0  0  0
   12.5221   -6.9827   21.5827 H   0  0  0  0  0  0  0  0  0  0  0  0
   13.2778   -4.3596   21.8609 H   0  0  0  0  0  0  0  0  0  0  0  0
   11.0625   -3.1560   21.7492 H   0  0  0  0  0  0  0  0  0  0  0  0
    6.0640   -2.9861   25.8349 H   0  0  0  0  0  0  0  0  0  0  0  0
    4.6695   -0.9902   27.2955 H   0  0  0  0  0  0  0  0  0  0  0  0
    2.7260   -0.7121   28.8194 H   0  0  0  0  0  0  0  0  0  0  0  0
    1.3336   -2.6431   29.4592 H   0  0  0  0  0  0  0  0  0  0  0  0
    1.8620   -4.9068   28.6095 H   0  0  0  0  0  0  0  0  0  0  0  0
  1  2  2  0
  2  3  1  0
  3  4  1  0
  4  5  1  0
  5  6  1  0
  6  7  2  0
  7  8  1  0
  8  9  2  0
  9 10  1  0
  2 11  1  0
 11 12  1  0
 12 13  1  0
 13 14  2  0
 14 15  1  0
 15 16  2  0
 16 17  1  0
 17 18  2  0
 18 19  1  0
 19 20  1  0
 10  6  1  0
 19 11  2  0
 18 13  1  0
  3 21  1  0
  4 22  1  0
  4 23  1  0
  5 24  1  0
  5 25  1  0
  8 26  1  0
  9 27  1  0
 10 28  1  0
 12 29  1  0
 14 30  1  0
 15 31  1  0
 16 32  1  0
 17 33  1  0
M  END
>  <Energy>  (1346) 
251.98722128493009

>  <compound_id>  (1346) 
47229

>  <target_id>  (1346) 
1

>  <reference_id>  (1346) 
40

>  <inspiration_ids>  (1346) 
[40, 80]

>  <energy_score>  (1346) 
255.74906547454577

>  <distance_score>  (1346) 
6.791842210143906

>  <path>  (1346) 
/opt/xchem-fragalysis-2/maxwin/BulkDock/SCRATCH/511023/C47229-P40/C47229-P40.minimised.mol

>  <scratch_subdir>  (1346) 
/opt/xchem-fragalysis-2/maxwin/BulkDock/SCRATCH/511023/C47229-P40

>  <fragmenstein_runtime>  (1346) 
5.942892551422119

>  <fragmenstein_outcome>  (1346) 
too moved

>  <fragmenstein_mode>  (1346) 
expansion

>  <fragmenstein_error>  (1346) 


$$$$
C47229-P80
     RDKit          3D

 33 35  0  0  0  0  0  0  0  0999 V2000
    3.2346   -2.8348   23.9364 O   0  0  0  0  0  0  0  0  0  0  0  0
    4.1017   -2.1076   24.2864 C   0  0  0  0  0  0  0  0  0  0  0  0
    5.1771   -1.5054   23.5373 N   0  0  0  0  0  0  0  0  0  0  0  0
    5.5631   -1.5202   21.7286 C   0  0  0  0  0  0  0  0  0  0  0  0
    6.9228   -0.5023   20.5914 C   0  0  0  0  0  0  0  0  0  0  0  0
    7.3852    0.0643   18.9273 C   0  0  0  0  0  0  0  0  0  0  0  0
    8.2746   -0.3506   17.9490 N   0  0  0  0  0  0  0  0  0  0  0  0
    8.5894    0.5623   16.9122 C   0  0  0  0  0  0  0  0  0  0  0  0
    8.3332    1.8358   17.3161 C   0  0  0  0  0  0  0  0  0  0  0  0
    7.6525    1.6991   18.5440 N   0  0  0  0  0  0  0  0  0  0  0  0
    4.2246   -1.7761   25.8185 C   0  0  0  0  0  0  0  0  0  0  0  0
    5.4853   -1.6440   26.4193 N   0  0  0  0  0  0  0  0  0  0  0  0
    5.4713   -1.8698   27.7836 C   0  0  0  0  0  0  0  0  0  0  0  0
    6.5215   -2.0925   28.6816 C   0  0  0  0  0  0  0  0  0  0  0  0
    6.1932   -2.4073   30.0050 C   0  0  0  0  0  0  0  0  0  0  0  0
    4.8687   -2.4849   30.4139 C   0  0  0  0  0  0  0  0  0  0  0  0
    3.8407   -2.2439   29.5027 C   0  0  0  0  0  0  0  0  0  0  0  0
    4.1503   -1.9530   28.1500 C   0  0  0  0  0  0  0  0  0  0  0  0
    3.3958   -1.7043   26.9596 C   0  0  0  0  0  0  0  0  0  0  0  0
    1.5905   -1.3941   27.3670 Br  0  0  0  0  0  0  0  0  0  0  0  0
    5.6630   -0.8942   24.1185 H   0  0  0  0  0  0  0  0  0  0  0  0
    5.5152   -2.5581   21.3764 H   0  0  0  0  0  0  0  0  0  0  0  0
    4.8285   -0.7094   21.7717 H   0  0  0  0  0  0  0  0  0  0  0  0
    7.1590    0.4839   20.9491 H   0  0  0  0  0  0  0  0  0  0  0  0
    7.7662   -1.0329   20.7241 H   0  0  0  0  0  0  0  0  0  0  0  0
    9.0820    0.2245   16.0084 H   0  0  0  0  0  0  0  0  0  0  0  0
    8.5207    2.8104   16.8929 H   0  0  0  0  0  0  0  0  0  0  0  0
    7.4979    2.4082   19.2331 H   0  0  0  0  0  0  0  0  0  0  0  0
    6.3120   -1.8817   25.8984 H   0  0  0  0  0  0  0  0  0  0  0  0
    7.5563   -2.0530   28.3571 H   0  0  0  0  0  0  0  0  0  0  0  0
    6.9903   -2.5907   30.7214 H   0  0  0  0  0  0  0  0  0  0  0  0
    4.6290   -2.7226   31.4468 H   0  0  0  0  0  0  0  0  0  0  0  0
    2.8102   -2.3150   29.8388 H   0  0  0  0  0  0  0  0  0  0  0  0
  1  2  2  0
  2  3  1  0
  3  4  1  0
  4  5  1  0
  5  6  1  0
  6  7  2  0
  7  8  1  0
  8  9  2  0
  9 10  1  0
  2 11  1  0
 11 12  1  0
 12 13  1  0
 13 14  2  0
 14 15  1  0
 15 16  2  0
 16 17  1  0
 17 18  2  0
 18 19  1  0
 19 20  1  0
 10  6  1  0
 19 11  2  0
 18 13  1  0
  3 21  1  0
  4 22  1  0
  4 23  1  0
  5 24  1  0
  5 25  1  0
  8 26  1  0
  9 27  1  0
 10 28  1  0
 12 29  1  0
 14 30  1  0
 15 31  1  0
 16 32  1  0
 17 33  1  0
M  END
>  <Energy>  (1347) 
264.56712632399319

>  <compound_id>  (1347) 
47229

>  <target_id>  (1347) 
1

>  <reference_id>  (1347) 
80

>  <inspiration_ids>  (1347) 
[40, 80]

>  <energy_score>  (1347) 
268.32897051360675

>  <distance_score>  (1347) 
7.275211742005025

>  <path>  (1347) 
/opt/xchem-fragalysis-2/maxwin/BulkDock/SCRATCH/511023/C47229-P80/C47229-P80.minimised.mol

>  <scratch_subdir>  (1347) 
/opt/xchem-fragalysis-2/maxwin/BulkDock/SCRATCH/511023/C47229-P80

>  <fragmenstein_runtime>  (1347) 
9.475306510925293

>  <fragmenstein_outcome>  (1347) 
too moved

>  <fragmenstein_mode>  (1347) 
expansion

>  <fragmenstein_error>  (1347) 


$$$$
C47230-P40
     RDKit          3D

 33 35  0  0  0  0  0  0  0  0999 V2000
    7.0556   -3.1157   21.3843 C   0  0  0  0  0  0  0  0  0  0  0  0
    7.8162   -4.4244   21.0500 C   0  0  0  0  0  0  0  0  0  0  0  0
    7.0078   -5.0080   22.7481 N   0  0  0  0  0  0  0  0  0  0  0  0
    6.3741   -6.3463   23.1692 C   0  0  0  0  0  0  0  0  0  0  0  0
    6.2318   -7.3768   22.5525 O   0  0  0  0  0  0  0  0  0  0  0  0
    5.9059   -6.1669   24.6141 C   0  0  0  0  0  0  0  0  0  0  0  0
    4.8725   -6.7447   25.3656 C   0  0  0  0  0  0  0  0  0  0  0  0
    4.6637   -5.9592   26.5692 C   0  0  0  0  0  0  0  0  0  0  0  0
    3.7674   -5.8859   27.6582 C   0  0  0  0  0  0  0  0  0  0  0  0
    2.5657   -7.0591   27.7884 Cl  0  0  0  0  0  0  0  0  0  0  0  0
    3.8301   -4.8853   28.6331 C   0  0  0  0  0  0  0  0  0  0  0  0
    4.8217   -3.9247   28.5642 C   0  0  0  0  0  0  0  0  0  0  0  0
    5.7593   -3.9683   27.5337 C   0  0  0  0  0  0  0  0  0  0  0  0
    5.6523   -4.9849   26.5682 C   0  0  0  0  0  0  0  0  0  0  0  0
    6.4523   -5.2340   25.4858 N   0  0  0  0  0  0  0  0  0  0  0  0
    9.8759   -4.9283   20.8363 C   0  0  0  0  0  0  0  0  0  0  0  0
   10.5802   -6.0981   20.9817 N   0  0  0  0  0  0  0  0  0  0  0  0
   11.9231   -6.0063   21.3547 C   0  0  0  0  0  0  0  0  0  0  0  0
   12.3058   -4.7325   21.5604 C   0  0  0  0  0  0  0  0  0  0  0  0
   11.1305   -4.0681   21.5406 N   0  0  0  0  0  0  0  0  0  0  0  0
    7.6122   -2.3004   21.3090 H   0  0  0  0  0  0  0  0  0  0  0  0
    6.5221   -3.1305   22.3547 H   0  0  0  0  0  0  0  0  0  0  0  0
    6.1070   -2.8297   20.8149 H   0  0  0  0  0  0  0  0  0  0  0  0
    7.2324   -4.7140   20.1234 H   0  0  0  0  0  0  0  0  0  0  0  0
    6.8833   -4.3327   23.4876 H   0  0  0  0  0  0  0  0  0  0  0  0
    4.2447   -7.5536   25.0098 H   0  0  0  0  0  0  0  0  0  0  0  0
    3.1088   -4.8527   29.4444 H   0  0  0  0  0  0  0  0  0  0  0  0
    4.8805   -3.1396   29.3142 H   0  0  0  0  0  0  0  0  0  0  0  0
    6.5507   -3.2249   27.4744 H   0  0  0  0  0  0  0  0  0  0  0  0
    7.2508   -4.6492   25.2700 H   0  0  0  0  0  0  0  0  0  0  0  0
   12.5172   -6.8956   21.5012 H   0  0  0  0  0  0  0  0  0  0  0  0
   13.2348   -4.2797   21.8722 H   0  0  0  0  0  0  0  0  0  0  0  0
   10.9754   -3.1438   21.8950 H   0  0  0  0  0  0  0  0  0  0  0  0
  1  2  1  0
  2  3  1  0
  3  4  1  0
  4  5  2  0
  4  6  1  0
  6  7  2  0
  7  8  1  0
  8  9  2  0
  9 10  1  0
  9 11  1  0
 11 12  2  0
 12 13  1  0
 13 14  2  0
 14 15  1  0
  2 16  1  0
 16 17  2  0
 17 18  1  0
 18 19  2  0
 19 20  1  0
 15  6  1  0
 20 16  1  0
 14  8  1  0
  1 21  1  0
  1 22  1  0
  1 23  1  0
  2 24  1  0
  3 25  1  0
  7 26  1  0
 11 27  1  0
 12 28  1  0
 13 29  1  0
 15 30  1  0
 18 31  1  0
 19 32  1  0
 20 33  1  0
M  END
>  <Energy>  (1348) 
289.30822389027151

>  <compound_id>  (1348) 
47230

>  <target_id>  (1348) 
1

>  <reference_id>  (1348) 
40

>  <inspiration_ids>  (1348) 
[40, 80]

>  <energy_score>  (1348) 
287.0777417961348

>  <distance_score>  (1348) 
7.516884577540502

>  <path>  (1348) 
/opt/xchem-fragalysis-2/maxwin/BulkDock/SCRATCH/511023/C47230-P40/C47230-P40.minimised.mol

>  <scratch_subdir>  (1348) 
/opt/xchem-fragalysis-2/maxwin/BulkDock/SCRATCH/511023/C47230-P40

>  <fragmenstein_runtime>  (1348) 
7.0869832038879395

>  <fragmenstein_outcome>  (1348) 
too moved

>  <fragmenstein_mode>  (1348) 
expansion

>  <fragmenstein_error>  (1348) 


$$$$
C47230-P80
     RDKit          3D

 33 35  0  0  0  0  0  0  0  0999 V2000
    4.3720   -0.1311   25.2065 C   0  0  0  0  0  0  0  0  0  0  0  0
    4.6749   -1.4851   24.4020 C   0  0  0  0  0  0  0  0  0  0  0  0
    3.7917   -2.1813   25.3733 N   0  0  0  0  0  0  0  0  0  0  0  0
    3.9091   -2.3350   26.8428 C   0  0  0  0  0  0  0  0  0  0  0  0
    4.7868   -2.0088   27.5919 O   0  0  0  0  0  0  0  0  0  0  0  0
    2.7673   -2.8661   27.6075 C   0  0  0  0  0  0  0  0  0  0  0  0
    2.8352   -3.4434   28.8783 C   0  0  0  0  0  0  0  0  0  0  0  0
    1.5546   -3.4963   29.4669 C   0  0  0  0  0  0  0  0  0  0  0  0
    1.0320   -3.9392   30.6916 C   0  0  0  0  0  0  0  0  0  0  0  0
    2.1143   -4.7358   31.7431 Cl  0  0  0  0  0  0  0  0  0  0  0  0
   -0.2831   -3.6650   31.0464 C   0  0  0  0  0  0  0  0  0  0  0  0
   -1.0840   -2.9322   30.1760 C   0  0  0  0  0  0  0  0  0  0  0  0
   -0.6119   -2.5179   28.9236 C   0  0  0  0  0  0  0  0  0  0  0  0
    0.7145   -2.8147   28.5945 C   0  0  0  0  0  0  0  0  0  0  0  0
    1.4643   -2.4617   27.4933 N   0  0  0  0  0  0  0  0  0  0  0  0
    4.9104   -1.3330   22.6271 C   0  0  0  0  0  0  0  0  0  0  0  0
    4.9615   -0.0503   21.7909 N   0  0  0  0  0  0  0  0  0  0  0  0
    6.4772   -0.1287   20.9693 C   0  0  0  0  0  0  0  0  0  0  0  0
    6.9148   -1.3192   20.7879 C   0  0  0  0  0  0  0  0  0  0  0  0
    5.6689   -2.1529   21.5008 N   0  0  0  0  0  0  0  0  0  0  0  0
    3.6776   -0.2157   26.0609 H   0  0  0  0  0  0  0  0  0  0  0  0
    3.7653    0.6123   24.7078 H   0  0  0  0  0  0  0  0  0  0  0  0
    5.2294    0.2534   25.7571 H   0  0  0  0  0  0  0  0  0  0  0  0
    5.6474   -1.8305   24.7262 H   0  0  0  0  0  0  0  0  0  0  0  0
    2.8714   -2.4980   25.0769 H   0  0  0  0  0  0  0  0  0  0  0  0
    3.7599   -3.7123   29.3755 H   0  0  0  0  0  0  0  0  0  0  0  0
   -0.6626   -3.9749   32.0160 H   0  0  0  0  0  0  0  0  0  0  0  0
   -2.0933   -2.6589   30.4714 H   0  0  0  0  0  0  0  0  0  0  0  0
   -1.2507   -1.9530   28.2510 H   0  0  0  0  0  0  0  0  0  0  0  0
    1.1441   -1.8490   26.7621 H   0  0  0  0  0  0  0  0  0  0  0  0
    7.2627    0.6710   20.8059 H   0  0  0  0  0  0  0  0  0  0  0  0
    7.3215   -1.2471   19.7922 H   0  0  0  0  0  0  0  0  0  0  0  0
    5.3779   -2.9624   20.9820 H   0  0  0  0  0  0  0  0  0  0  0  0
  1  2  1  0
  2  3  1  0
  3  4  1  0
  4  5  2  0
  4  6  1  0
  6  7  2  0
  7  8  1  0
  8  9  2  0
  9 10  1  0
  9 11  1  0
 11 12  2  0
 12 13  1  0
 13 14  2  0
 14 15  1  0
  2 16  1  0
 16 17  2  0
 17 18  1  0
 18 19  2  0
 19 20  1  0
 15  6  1  0
 20 16  1  0
 14  8  1  0
  1 21  1  0
  1 22  1  0
  1 23  1  0
  2 24  1  0
  3 25  1  0
  7 26  1  0
 11 27  1  0
 12 28  1  0
 13 29  1  0
 15 30  1  0
 18 31  1  0
 19 32  1  0
 20 33  1  0
M  END
>  <Energy>  (1349) 
269.02037098821688

>  <compound_id>  (1349) 
47230

>  <target_id>  (1349) 
1

>  <reference_id>  (1349) 
80

>  <inspiration_ids>  (1349) 
[40, 80]

>  <energy_score>  (1349) 
266.7898888940774

>  <distance_score>  (1349) 
6.822314729060052

>  <path>  (1349) 
/opt/xchem-fragalysis-2/maxwin/BulkDock/SCRATCH/511023/C47230-P80/C47230-P80.minimised.mol

>  <scratch_subdir>  (1349) 
/opt/xchem-fragalysis-2/maxwin/BulkDock/SCRATCH/511023/C47230-P80

>  <fragmenstein_runtime>  (1349) 
13.863865375518799

>  <fragmenstein_outcome>  (1349) 
too moved

>  <fragmenstein_mode>  (1349) 
expansion

>  <fragmenstein_error>  (1349) 


$$$$
C47231-P40
     RDKit          3D

 33 35  0  0  0  0  0  0  0  0999 V2000
    3.7012   -3.6692   25.0262 O   0  0  0  0  0  0  0  0  0  0  0  0
    4.6337   -2.9689   25.2882 C   0  0  0  0  0  0  0  0  0  0  0  0
    5.2853   -1.9455   24.5156 N   0  0  0  0  0  0  0  0  0  0  0  0
    4.9290   -1.3240   23.1088 C   0  0  0  0  0  0  0  0  0  0  0  0
    5.5113   -1.0760   21.2235 C   0  0  0  0  0  0  0  0  0  0  0  0
    6.9693   -0.3483   20.0375 C   0  0  0  0  0  0  0  0  0  0  0  0
    8.2916   -0.1673   19.9937 N   0  0  0  0  0  0  0  0  0  0  0  0
    8.4330    1.0434   19.3720 C   0  0  0  0  0  0  0  0  0  0  0  0
    7.9393    0.7792   18.1700 C   0  0  0  0  0  0  0  0  0  0  0  0
    6.8624    0.0592   18.6572 N   0  0  0  0  0  0  0  0  0  0  0  0
    5.0600   -3.1708   26.6611 C   0  0  0  0  0  0  0  0  0  0  0  0
    5.3738   -2.2874   27.6762 C   0  0  0  0  0  0  0  0  0  0  0  0
    4.7464   -2.8071   28.8658 C   0  0  0  0  0  0  0  0  0  0  0  0
    4.4199   -2.2994   30.1358 C   0  0  0  0  0  0  0  0  0  0  0  0
    4.9997   -0.7361   30.5114 Cl  0  0  0  0  0  0  0  0  0  0  0  0
    3.6063   -3.0133   31.0173 C   0  0  0  0  0  0  0  0  0  0  0  0
    3.1115   -4.2605   30.6512 C   0  0  0  0  0  0  0  0  0  0  0  0
    3.4540   -4.8307   29.4214 C   0  0  0  0  0  0  0  0  0  0  0  0
    4.2678   -4.0815   28.5598 C   0  0  0  0  0  0  0  0  0  0  0  0
    4.7116   -4.3585   27.2889 N   0  0  0  0  0  0  0  0  0  0  0  0
    5.9918   -1.5009   25.0882 H   0  0  0  0  0  0  0  0  0  0  0  0
    4.9320   -0.2842   23.4637 H   0  0  0  0  0  0  0  0  0  0  0  0
    3.9243   -1.7306   23.0681 H   0  0  0  0  0  0  0  0  0  0  0  0
    4.8034   -0.2336   21.3351 H   0  0  0  0  0  0  0  0  0  0  0  0
    5.5307   -2.1420   20.8435 H   0  0  0  0  0  0  0  0  0  0  0  0
    8.9889    1.8949   19.7360 H   0  0  0  0  0  0  0  0  0  0  0  0
    7.9935    1.2263   17.1882 H   0  0  0  0  0  0  0  0  0  0  0  0
    6.0596   -0.2232   18.1266 H   0  0  0  0  0  0  0  0  0  0  0  0
    5.6914   -1.2601   27.5492 H   0  0  0  0  0  0  0  0  0  0  0  0
    3.3427   -2.5838   31.9801 H   0  0  0  0  0  0  0  0  0  0  0  0
    2.4584   -4.7962   31.3353 H   0  0  0  0  0  0  0  0  0  0  0  0
    3.0770   -5.8040   29.1301 H   0  0  0  0  0  0  0  0  0  0  0  0
    4.4089   -5.1585   26.7522 H   0  0  0  0  0  0  0  0  0  0  0  0
  1  2  2  0
  2  3  1  0
  3  4  1  0
  4  5  1  0
  5  6  1  0
  6  7  2  0
  7  8  1  0
  8  9  2  0
  9 10  1  0
  2 11  1  0
 11 12  2  0
 12 13  1  0
 13 14  2  0
 14 15  1  0
 14 16  1  0
 16 17  2  0
 17 18  1  0
 18 19  2  0
 19 20  1  0
 10  6  1  0
 20 11  1  0
 19 13  1  0
  3 21  1  0
  4 22  1  0
  4 23  1  0
  5 24  1  0
  5 25  1  0
  8 26  1  0
  9 27  1  0
 10 28  1  0
 12 29  1  0
 16 30  1  0
 17 31  1  0
 18 32  1  0
 20 33  1  0
M  END
>  <Energy>  (1350) 
268.71688462961379

>  <compound_id>  (1350) 
47231

>  <target_id>  (1350) 
1

>  <reference_id>  (1350) 
40

>  <inspiration_ids>  (1350) 
[40, 80]

>  <energy_score>  (1350) 
259.62333801920363

>  <distance_score>  (1350) 
6.760922371336204

>  <path>  (1350) 
/opt/xchem-fragalysis-2/maxwin/BulkDock/SCRATCH/511023/C47231-P40/C47231-P40.minimised.mol

>  <scratch_subdir>  (1350) 
/opt/xchem-fragalysis-2/maxwin/BulkDock/SCRATCH/511023/C47231-P40

>  <fragmenstein_runtime>  (1350) 
9.080047607421875

>  <fragmenstein_outcome>  (1350) 
too moved

>  <fragmenstein_mode>  (1350) 
expansion

>  <fragmenstein_error>  (1350) 


$$$$
C47231-P80
     RDKit          3D

 33 35  0  0  0  0  0  0  0  0999 V2000
    6.1217    0.2039   27.5492 O   0  0  0  0  0  0  0  0  0  0  0  0
    6.3854   -0.9439   27.7487 C   0  0  0  0  0  0  0  0  0  0  0  0
    7.5638   -1.6961   27.4499 N   0  0  0  0  0  0  0  0  0  0  0  0
    8.7694   -1.3300   26.7262 C   0  0  0  0  0  0  0  0  0  0  0  0
   10.0364   -2.1387   26.9935 C   0  0  0  0  0  0  0  0  0  0  0  0
   11.0972   -1.8543   25.9546 C   0  0  0  0  0  0  0  0  0  0  0  0
   11.5637   -0.6774   25.5849 N   0  0  0  0  0  0  0  0  0  0  0  0
   12.5105   -0.9318   24.6224 C   0  0  0  0  0  0  0  0  0  0  0  0
   12.6320   -2.2819   24.4042 C   0  0  0  0  0  0  0  0  0  0  0  0
   11.7117   -2.8524   25.2320 N   0  0  0  0  0  0  0  0  0  0  0  0
    5.3399   -1.7734   28.3523 C   0  0  0  0  0  0  0  0  0  0  0  0
    5.3491   -2.6309   29.4401 C   0  0  0  0  0  0  0  0  0  0  0  0
    4.0168   -3.1030   29.6631 C   0  0  0  0  0  0  0  0  0  0  0  0
    3.3857   -3.9541   30.5903 C   0  0  0  0  0  0  0  0  0  0  0  0
    4.3821   -4.5883   31.8248 Cl  0  0  0  0  0  0  0  0  0  0  0  0
    2.0251   -4.2491   30.5040 C   0  0  0  0  0  0  0  0  0  0  0  0
    1.2618   -3.6710   29.4934 C   0  0  0  0  0  0  0  0  0  0  0  0
    1.8439   -2.8057   28.5574 C   0  0  0  0  0  0  0  0  0  0  0  0
    3.2183   -2.5418   28.6651 C   0  0  0  0  0  0  0  0  0  0  0  0
    4.0368   -1.7485   27.8913 N   0  0  0  0  0  0  0  0  0  0  0  0
    7.4033   -2.6675   27.6867 H   0  0  0  0  0  0  0  0  0  0  0  0
    8.5068   -1.4635   25.6786 H   0  0  0  0  0  0  0  0  0  0  0  0
    8.9426   -0.2590   26.8804 H   0  0  0  0  0  0  0  0  0  0  0  0
   10.4297   -1.8962   27.9872 H   0  0  0  0  0  0  0  0  0  0  0  0
    9.7979   -3.2091   27.0004 H   0  0  0  0  0  0  0  0  0  0  0  0
   13.0410   -0.1302   24.1256 H   0  0  0  0  0  0  0  0  0  0  0  0
   13.2345   -2.8528   23.7134 H   0  0  0  0  0  0  0  0  0  0  0  0
   11.4609   -3.8302   25.2688 H   0  0  0  0  0  0  0  0  0  0  0  0
    6.2174   -2.8534   30.0465 H   0  0  0  0  0  0  0  0  0  0  0  0
    1.5614   -4.9134   31.2291 H   0  0  0  0  0  0  0  0  0  0  0  0
    0.1977   -3.8865   29.4274 H   0  0  0  0  0  0  0  0  0  0  0  0
    1.2482   -2.3536   27.7684 H   0  0  0  0  0  0  0  0  0  0  0  0
    3.7403   -1.2125   27.0844 H   0  0  0  0  0  0  0  0  0  0  0  0
  1  2  2  0
  2  3  1  0
  3  4  1  0
  4  5  1  0
  5  6  1  0
  6  7  2  0
  7  8  1  0
  8  9  2  0
  9 10  1  0
  2 11  1  0
 11 12  2  0
 12 13  1  0
 13 14  2  0
 14 15  1  0
 14 16  1  0
 16 17  2  0
 17 18  1  0
 18 19  2  0
 19 20  1  0
 10  6  1  0
 20 11  1  0
 19 13  1  0
  3 21  1  0
  4 22  1  0
  4 23  1  0
  5 24  1  0
  5 25  1  0
  8 26  1  0
  9 27  1  0
 10 28  1  0
 12 29  1  0
 16 30  1  0
 17 31  1  0
 18 32  1  0
 20 33  1  0
M  END
>  <Energy>  (1351) 
4.5172631293768433

>  <compound_id>  (1351) 
47231

>  <target_id>  (1351) 
1

>  <reference_id>  (1351) 
80

>  <inspiration_ids>  (1351) 
[40, 80]

>  <energy_score>  (1351) 
-4.576283481036739

>  <distance_score>  (1351) 
7.841048075458492

>  <path>  (1351) 
/opt/xchem-fragalysis-2/maxwin/BulkDock/SCRATCH/511023/C47231-P80/C47231-P80.minimised.mol

>  <scratch_subdir>  (1351) 
/opt/xchem-fragalysis-2/maxwin/BulkDock/SCRATCH/511023/C47231-P80

>  <fragmenstein_runtime>  (1351) 
9.018031597137451

>  <fragmenstein_outcome>  (1351) 
too moved

>  <fragmenstein_mode>  (1351) 
expansion

>  <fragmenstein_error>  (1351) 


$$$$
C47232-P40
     RDKit          3D

 33 35  0  0  0  0  0  0  0  0999 V2000
    9.2811   -6.6025   26.4655 O   0  0  0  0  0  0  0  0  0  0  0  0
    9.0273   -5.4815   26.1878 C   0  0  0  0  0  0  0  0  0  0  0  0
    9.9032   -4.3816   25.4121 N   0  0  0  0  0  0  0  0  0  0  0  0
   11.3596   -4.5108   24.6807 C   0  0  0  0  0  0  0  0  0  0  0  0
   11.8168   -3.5444   23.3767 C   0  0  0  0  0  0  0  0  0  0  0  0
   12.4964   -3.8791   22.0032 C   0  0  0  0  0  0  0  0  0  0  0  0
   12.4107   -4.9255   21.1050 C   0  0  0  0  0  0  0  0  0  0  0  0
   13.1030   -4.5507   19.9634 N   0  0  0  0  0  0  0  0  0  0  0  0
   13.6433   -3.3268   20.1957 C   0  0  0  0  0  0  0  0  0  0  0  0
   13.3015   -2.8938   21.3910 N   0  0  0  0  0  0  0  0  0  0  0  0
    7.5378   -5.1083   26.6717 C   0  0  0  0  0  0  0  0  0  0  0  0
    6.6833   -3.9940   26.7531 C   0  0  0  0  0  0  0  0  0  0  0  0
    5.3519   -4.3350   27.2414 C   0  0  0  0  0  0  0  0  0  0  0  0
    4.1197   -3.6750   27.4628 C   0  0  0  0  0  0  0  0  0  0  0  0
    4.1017   -2.0062   27.0833 Cl  0  0  0  0  0  0  0  0  0  0  0  0
    3.0000   -4.3081   28.0157 C   0  0  0  0  0  0  0  0  0  0  0  0
    3.1057   -5.6265   28.4213 C   0  0  0  0  0  0  0  0  0  0  0  0
    4.3082   -6.3210   28.2004 C   0  0  0  0  0  0  0  0  0  0  0  0
    5.4076   -5.6696   27.5870 C   0  0  0  0  0  0  0  0  0  0  0  0
    6.6755   -6.1133   27.2097 N   0  0  0  0  0  0  0  0  0  0  0  0
    9.4140   -3.4907   25.4162 H   0  0  0  0  0  0  0  0  0  0  0  0
   11.5314   -5.5720   24.4772 H   0  0  0  0  0  0  0  0  0  0  0  0
   12.0433   -4.2496   25.4981 H   0  0  0  0  0  0  0  0  0  0  0  0
   10.9476   -2.9443   23.1680 H   0  0  0  0  0  0  0  0  0  0  0  0
   12.5252   -2.8419   23.8432 H   0  0  0  0  0  0  0  0  0  0  0  0
   11.8863   -5.8643   21.1506 H   0  0  0  0  0  0  0  0  0  0  0  0
   13.2344   -5.1032   19.1256 H   0  0  0  0  0  0  0  0  0  0  0  0
   14.2661   -2.8106   19.4790 H   0  0  0  0  0  0  0  0  0  0  0  0
    6.9706   -2.9971   26.4434 H   0  0  0  0  0  0  0  0  0  0  0  0
    2.0844   -3.7467   28.1797 H   0  0  0  0  0  0  0  0  0  0  0  0
    2.2625   -6.1214   28.8905 H   0  0  0  0  0  0  0  0  0  0  0  0
    4.4141   -7.3592   28.4826 H   0  0  0  0  0  0  0  0  0  0  0  0
    7.0019   -7.0646   27.3076 H   0  0  0  0  0  0  0  0  0  0  0  0
  1  2  2  0
  2  3  1  0
  3  4  1  0
  4  5  1  0
  5  6  1  0
  6  7  2  0
  7  8  1  0
  8  9  1  0
  9 10  2  0
  2 11  1  0
 11 12  2  0
 12 13  1  0
 13 14  2  0
 14 15  1  0
 14 16  1  0
 16 17  2  0
 17 18  1  0
 18 19  2  0
 19 20  1  0
 10  6  1  0
 20 11  1  0
 19 13  1  0
  3 21  1  0
  4 22  1  0
  4 23  1  0
  5 24  1  0
  5 25  1  0
  7 26  1  0
  8 27  1  0
  9 28  1  0
 12 29  1  0
 16 30  1  0
 17 31  1  0
 18 32  1  0
 20 33  1  0
M  END
>  <Energy>  (1352) 
74.356552897018531

>  <compound_id>  (1352) 
47232

>  <target_id>  (1352) 
1

>  <reference_id>  (1352) 
40

>  <inspiration_ids>  (1352) 
[40, 80]

>  <energy_score>  (1352) 
50.55185805510649

>  <distance_score>  (1352) 
7.361385375463864

>  <path>  (1352) 
/opt/xchem-fragalysis-2/maxwin/BulkDock/SCRATCH/511023/C47232-P40/C47232-P40.minimised.mol

>  <scratch_subdir>  (1352) 
/opt/xchem-fragalysis-2/maxwin/BulkDock/SCRATCH/511023/C47232-P40

>  <fragmenstein_runtime>  (1352) 
3.919809103012085

>  <fragmenstein_outcome>  (1352) 
too moved

>  <fragmenstein_mode>  (1352) 
expansion

>  <fragmenstein_error>  (1352) 


$$$$
C47232-P80
     RDKit          3D

 33 35  0  0  0  0  0  0  0  0999 V2000
   11.0154   -6.4763   26.8588 O   0  0  0  0  0  0  0  0  0  0  0  0
   10.7033   -5.3819   26.5413 C   0  0  0  0  0  0  0  0  0  0  0  0
   11.2961   -4.4271   25.3968 N   0  0  0  0  0  0  0  0  0  0  0  0
   12.4323   -4.7178   24.2582 C   0  0  0  0  0  0  0  0  0  0  0  0
   12.6584   -3.6603   23.0063 C   0  0  0  0  0  0  0  0  0  0  0  0
   13.2070   -3.8376   21.5313 C   0  0  0  0  0  0  0  0  0  0  0  0
   12.9071   -4.7039   20.4949 C   0  0  0  0  0  0  0  0  0  0  0  0
   13.3574   -4.1260   19.3201 N   0  0  0  0  0  0  0  0  0  0  0  0
   14.0253   -2.9934   19.6555 C   0  0  0  0  0  0  0  0  0  0  0  0
   13.9634   -2.7939   20.9546 N   0  0  0  0  0  0  0  0  0  0  0  0
    9.3660   -4.9019   27.3992 C   0  0  0  0  0  0  0  0  0  0  0  0
    8.6733   -5.7758   28.3008 C   0  0  0  0  0  0  0  0  0  0  0  0
    7.4850   -5.2048   28.8763 C   0  0  0  0  0  0  0  0  0  0  0  0
    6.5029   -5.6075   29.8083 C   0  0  0  0  0  0  0  0  0  0  0  0
    6.8979   -7.0585   30.6199 Cl  0  0  0  0  0  0  0  0  0  0  0  0
    5.4092   -4.8074   30.1573 C   0  0  0  0  0  0  0  0  0  0  0  0
    5.3083   -3.5357   29.6100 C   0  0  0  0  0  0  0  0  0  0  0  0
    6.2985   -3.0773   28.7100 C   0  0  0  0  0  0  0  0  0  0  0  0
    7.3978   -3.9245   28.3549 C   0  0  0  0  0  0  0  0  0  0  0  0
    8.5034   -3.7672   27.4564 N   0  0  0  0  0  0  0  0  0  0  0  0
   10.7411   -3.5812   25.3381 H   0  0  0  0  0  0  0  0  0  0  0  0
   12.2030   -5.7139   23.8741 H   0  0  0  0  0  0  0  0  0  0  0  0
   13.3682   -4.8000   24.8213 H   0  0  0  0  0  0  0  0  0  0  0  0
   11.6779   -3.2317   22.8911 H   0  0  0  0  0  0  0  0  0  0  0  0
   13.2698   -2.8577   23.4439 H   0  0  0  0  0  0  0  0  0  0  0  0
   12.3092   -5.5935   20.4587 H   0  0  0  0  0  0  0  0  0  0  0  0
   13.1834   -4.4642   18.3849 H   0  0  0  0  0  0  0  0  0  0  0  0
   14.5171   -2.3538   18.9357 H   0  0  0  0  0  0  0  0  0  0  0  0
    9.0438   -6.7735   28.5095 H   0  0  0  0  0  0  0  0  0  0  0  0
    4.6885   -5.1305   30.9009 H   0  0  0  0  0  0  0  0  0  0  0  0
    4.4788   -2.8829   29.8705 H   0  0  0  0  0  0  0  0  0  0  0  0
    6.2116   -2.0912   28.2586 H   0  0  0  0  0  0  0  0  0  0  0  0
    8.6016   -2.9615   26.8567 H   0  0  0  0  0  0  0  0  0  0  0  0
  1  2  2  0
  2  3  1  0
  3  4  1  0
  4  5  1  0
  5  6  1  0
  6  7  2  0
  7  8  1  0
  8  9  1  0
  9 10  2  0
  2 11  1  0
 11 12  2  0
 12 13  1  0
 13 14  2  0
 14 15  1  0
 14 16  1  0
 16 17  2  0
 17 18  1  0
 18 19  2  0
 19 20  1  0
 10  6  1  0
 20 11  1  0
 19 13  1  0
  3 21  1  0
  4 22  1  0
  4 23  1  0
  5 24  1  0
  5 25  1  0
  7 26  1  0
  8 27  1  0
  9 28  1  0
 12 29  1  0
 16 30  1  0
 17 31  1  0
 18 32  1  0
 20 33  1  0
M  END
>  <Energy>  (1353) 
89.118216357347464

>  <compound_id>  (1353) 
47232

>  <target_id>  (1353) 
1

>  <reference_id>  (1353) 
80

>  <inspiration_ids>  (1353) 
[40, 80]

>  <energy_score>  (1353) 
65.31352151543996

>  <distance_score>  (1353) 
8.159546920870598

>  <path>  (1353) 
/opt/xchem-fragalysis-2/maxwin/BulkDock/SCRATCH/511023/C47232-P80/C47232-P80.minimised.mol

>  <scratch_subdir>  (1353) 
/opt/xchem-fragalysis-2/maxwin/BulkDock/SCRATCH/511023/C47232-P80

>  <fragmenstein_runtime>  (1353) 
3.4515795707702637

>  <fragmenstein_outcome>  (1353) 
too moved

>  <fragmenstein_mode>  (1353) 
expansion

>  <fragmenstein_error>  (1353) 


$$$$
C47233-P40
     RDKit          3D

 37 39  0  0  0  0  0  0  0  0999 V2000
    3.5568   -7.3620   25.9960 C   0  0  0  0  0  0  0  0  0  0  0  0
    3.3205   -7.2365   27.3975 O   0  0  0  0  0  0  0  0  0  0  0  0
    2.9757   -5.9943   27.8102 C   0  0  0  0  0  0  0  0  0  0  0  0
    3.6712   -4.8017   27.6168 C   0  0  0  0  0  0  0  0  0  0  0  0
    4.9000   -4.4968   26.8727 C   0  0  0  0  0  0  0  0  0  0  0  0
    5.1304   -5.0982   25.9045 O   0  0  0  0  0  0  0  0  0  0  0  0
    5.6396   -3.3040   27.5054 N   0  0  0  0  0  0  0  0  0  0  0  0
    6.7847   -2.5266   27.0194 C   0  0  0  0  0  0  0  0  0  0  0  0
    7.3456   -1.6347   28.1157 C   0  0  0  0  0  0  0  0  0  0  0  0
    6.2823   -1.7369   25.8354 C   0  0  0  0  0  0  0  0  0  0  0  0
    6.1112   -0.4345   25.7033 N   0  0  0  0  0  0  0  0  0  0  0  0
    5.0767   -0.3142   24.8099 C   0  0  0  0  0  0  0  0  0  0  0  0
    4.8036   -1.5242   24.2276 C   0  0  0  0  0  0  0  0  0  0  0  0
    5.6561   -2.3995   24.8065 N   0  0  0  0  0  0  0  0  0  0  0  0
    2.8747   -3.8325   28.2007 N   0  0  0  0  0  0  0  0  0  0  0  0
    1.8586   -4.3948   28.9350 C   0  0  0  0  0  0  0  0  0  0  0  0
    0.9354   -3.7983   29.7960 C   0  0  0  0  0  0  0  0  0  0  0  0
    0.0223   -4.6410   30.4278 C   0  0  0  0  0  0  0  0  0  0  0  0
    0.0005   -6.0078   30.1516 C   0  0  0  0  0  0  0  0  0  0  0  0
    0.9056   -6.5804   29.2626 C   0  0  0  0  0  0  0  0  0  0  0  0
    1.8775   -5.7588   28.6743 C   0  0  0  0  0  0  0  0  0  0  0  0
    4.6312   -7.4238   25.8065 H   0  0  0  0  0  0  0  0  0  0  0  0
    3.0868   -6.5665   25.4117 H   0  0  0  0  0  0  0  0  0  0  0  0
    3.1194   -8.3102   25.6673 H   0  0  0  0  0  0  0  0  0  0  0  0
    5.2153   -3.0765   28.3921 H   0  0  0  0  0  0  0  0  0  0  0  0
    7.5443   -3.2449   26.6969 H   0  0  0  0  0  0  0  0  0  0  0  0
    8.1969   -1.0504   27.7501 H   0  0  0  0  0  0  0  0  0  0  0  0
    7.6848   -2.2357   28.9665 H   0  0  0  0  0  0  0  0  0  0  0  0
    6.5917   -0.9326   28.4907 H   0  0  0  0  0  0  0  0  0  0  0  0
    4.5984    0.6371   24.6241 H   0  0  0  0  0  0  0  0  0  0  0  0
    4.0946   -1.7847   23.4715 H   0  0  0  0  0  0  0  0  0  0  0  0
    5.7689   -3.3960   24.6492 H   0  0  0  0  0  0  0  0  0  0  0  0
    3.0496   -2.8371   28.1425 H   0  0  0  0  0  0  0  0  0  0  0  0
    0.9342   -2.7290   29.9852 H   0  0  0  0  0  0  0  0  0  0  0  0
   -0.6927   -4.2156   31.1286 H   0  0  0  0  0  0  0  0  0  0  0  0
   -0.7306   -6.6388   30.6520 H   0  0  0  0  0  0  0  0  0  0  0  0
    0.8620   -7.6417   29.0590 H   0  0  0  0  0  0  0  0  0  0  0  0
  1  2  1  0
  2  3  1  0
  3  4  2  0
  4  5  1  0
  5  6  2  0
  5  7  1  0
  7  8  1  0
  8  9  1  0
  8 10  1  0
 10 11  2  0
 11 12  1  0
 12 13  2  0
 13 14  1  0
  4 15  1  0
 15 16  1  0
 16 17  2  0
 17 18  1  0
 18 19  2  0
 19 20  1  0
 20 21  2  0
 21  3  1  0
 14 10  1  0
 21 16  1  0
  1 22  1  0
  1 23  1  0
  1 24  1  0
  7 25  1  0
  8 26  1  0
  9 27  1  0
  9 28  1  0
  9 29  1  0
 12 30  1  0
 13 31  1  0
 14 32  1  0
 15 33  1  0
 17 34  1  0
 18 35  1  0
 19 36  1  0
 20 37  1  0
M  END
>  <Energy>  (1354) 
10.831766922227811

>  <compound_id>  (1354) 
47233

>  <target_id>  (1354) 
1

>  <reference_id>  (1354) 
40

>  <inspiration_ids>  (1354) 
[40, 80]

>  <energy_score>  (1354) 
-7.889239447710281

>  <distance_score>  (1354) 
7.925422684890108

>  <path>  (1354) 
/opt/xchem-fragalysis-2/maxwin/BulkDock/SCRATCH/511023/C47233-P40/C47233-P40.minimised.mol

>  <scratch_subdir>  (1354) 
/opt/xchem-fragalysis-2/maxwin/BulkDock/SCRATCH/511023/C47233-P40

>  <fragmenstein_runtime>  (1354) 
7.038156509399414

>  <fragmenstein_outcome>  (1354) 
too moved

>  <fragmenstein_mode>  (1354) 
expansion

>  <fragmenstein_error>  (1354) 


$$$$
C47233-P80
     RDKit          3D

 37 39  0  0  0  0  0  0  0  0999 V2000
    0.1368   -2.7107   33.4902 C   0  0  0  0  0  0  0  0  0  0  0  0
    1.3003   -2.8890   32.6875 O   0  0  0  0  0  0  0  0  0  0  0  0
    0.9763   -3.2017   31.4138 C   0  0  0  0  0  0  0  0  0  0  0  0
    1.3630   -2.4372   30.3361 C   0  0  0  0  0  0  0  0  0  0  0  0
    2.1806   -1.2426   30.2514 C   0  0  0  0  0  0  0  0  0  0  0  0
    1.8790   -0.2342   30.8128 O   0  0  0  0  0  0  0  0  0  0  0  0
    3.2425   -1.5223   29.3545 N   0  0  0  0  0  0  0  0  0  0  0  0
    4.2288   -0.6655   28.7651 C   0  0  0  0  0  0  0  0  0  0  0  0
    5.5724   -0.8157   29.4577 C   0  0  0  0  0  0  0  0  0  0  0  0
    4.2625   -1.1471   27.3412 C   0  0  0  0  0  0  0  0  0  0  0  0
    3.6374   -2.2246   26.8907 N   0  0  0  0  0  0  0  0  0  0  0  0
    3.8524   -2.2335   25.5487 C   0  0  0  0  0  0  0  0  0  0  0  0
    4.6296   -1.1822   25.1836 C   0  0  0  0  0  0  0  0  0  0  0  0
    4.8797   -0.4856   26.3217 N   0  0  0  0  0  0  0  0  0  0  0  0
    0.8378   -3.0506   29.2131 N   0  0  0  0  0  0  0  0  0  0  0  0
    0.3296   -4.2833   29.5370 C   0  0  0  0  0  0  0  0  0  0  0  0
   -0.1419   -5.2986   28.7057 C   0  0  0  0  0  0  0  0  0  0  0  0
   -0.4824   -6.5099   29.3062 C   0  0  0  0  0  0  0  0  0  0  0  0
   -0.4220   -6.6704   30.6870 C   0  0  0  0  0  0  0  0  0  0  0  0
    0.0089   -5.6260   31.5071 C   0  0  0  0  0  0  0  0  0  0  0  0
    0.4071   -4.4105   30.9231 C   0  0  0  0  0  0  0  0  0  0  0  0
   -0.3633   -3.6646   33.6831 H   0  0  0  0  0  0  0  0  0  0  0  0
   -0.5607   -2.0012   33.0303 H   0  0  0  0  0  0  0  0  0  0  0  0
    0.4533   -2.2977   34.4527 H   0  0  0  0  0  0  0  0  0  0  0  0
    3.1417   -2.4710   29.0080 H   0  0  0  0  0  0  0  0  0  0  0  0
    3.8776    0.3701   28.8204 H   0  0  0  0  0  0  0  0  0  0  0  0
    6.3315   -0.1819   28.9868 H   0  0  0  0  0  0  0  0  0  0  0  0
    5.9324   -1.8508   29.4205 H   0  0  0  0  0  0  0  0  0  0  0  0
    5.4980   -0.5309   30.5129 H   0  0  0  0  0  0  0  0  0  0  0  0
    3.4492   -2.9912   24.9033 H   0  0  0  0  0  0  0  0  0  0  0  0
    4.9687   -0.8877   24.2116 H   0  0  0  0  0  0  0  0  0  0  0  0
    5.4048    0.3712   26.4026 H   0  0  0  0  0  0  0  0  0  0  0  0
    0.9556   -2.7011   28.2678 H   0  0  0  0  0  0  0  0  0  0  0  0
   -0.1763   -5.1831   27.6298 H   0  0  0  0  0  0  0  0  0  0  0  0
   -0.7594   -7.3493   28.6787 H   0  0  0  0  0  0  0  0  0  0  0  0
   -0.6450   -7.6325   31.1368 H   0  0  0  0  0  0  0  0  0  0  0  0
    0.1140   -5.7835   32.5770 H   0  0  0  0  0  0  0  0  0  0  0  0
  1  2  1  0
  2  3  1  0
  3  4  2  0
  4  5  1  0
  5  6  2  0
  5  7  1  0
  7  8  1  0
  8  9  1  0
  8 10  1  0
 10 11  2  0
 11 12  1  0
 12 13  2  0
 13 14  1  0
  4 15  1  0
 15 16  1  0
 16 17  2  0
 17 18  1  0
 18 19  2  0
 19 20  1  0
 20 21  2  0
 21  3  1  0
 14 10  1  0
 21 16  1  0
  1 22  1  0
  1 23  1  0
  1 24  1  0
  7 25  1  0
  8 26  1  0
  9 27  1  0
  9 28  1  0
  9 29  1  0
 12 30  1  0
 13 31  1  0
 14 32  1  0
 15 33  1  0
 17 34  1  0
 18 35  1  0
 19 36  1  0
 20 37  1  0
M  END
>  <Energy>  (1355) 
-6.3374488098049602

>  <compound_id>  (1355) 
47233

>  <target_id>  (1355) 
1

>  <reference_id>  (1355) 
80

>  <inspiration_ids>  (1355) 
[40, 80]

>  <energy_score>  (1355) 
-5.652247440799783

>  <distance_score>  (1355) 
8.43777236083501

>  <path>  (1355) 
/opt/xchem-fragalysis-2/maxwin/BulkDock/SCRATCH/511023/C47233-P80/C47233-P80.minimised.mol

>  <scratch_subdir>  (1355) 
/opt/xchem-fragalysis-2/maxwin/BulkDock/SCRATCH/511023/C47233-P80

>  <fragmenstein_runtime>  (1355) 
16.731064319610596

>  <fragmenstein_outcome>  (1355) 
too moved

>  <fragmenstein_mode>  (1355) 
expansion

>  <fragmenstein_error>  (1355) 


$$$$
C47234-P40
     RDKit          3D

 40 43  0  0  0  0  0  0  0  0999 V2000
    4.9908   -3.4353   25.5093 O   0  0  0  0  0  0  0  0  0  0  0  0
    5.5482   -4.4240   25.1238 C   0  0  0  0  0  0  0  0  0  0  0  0
    6.2469   -4.6920   23.8803 N   0  0  0  0  0  0  0  0  0  0  0  0
    6.5924   -3.7550   22.6876 C   0  0  0  0  0  0  0  0  0  0  0  0
    7.5593   -4.0668   20.9932 C   0  0  0  0  0  0  0  0  0  0  0  0
    8.8097   -3.7127   19.7914 C   0  0  0  0  0  0  0  0  0  0  0  0
   10.0421   -4.9034   18.9801 N   0  0  0  0  0  0  0  0  0  0  0  0
   10.8753   -3.7466   17.5435 C   0  0  0  0  0  0  0  0  0  0  0  0
   10.1211   -1.9943   17.2999 C   0  0  0  0  0  0  0  0  0  0  0  0
    8.7543   -1.8209   18.8936 N   0  0  0  0  0  0  0  0  0  0  0  0
    5.6162   -5.4794   26.0938 C   0  0  0  0  0  0  0  0  0  0  0  0
    5.8151   -5.1164   27.4074 N   0  0  0  0  0  0  0  0  0  0  0  0
    6.1963   -6.1967   28.1470 C   0  0  0  0  0  0  0  0  0  0  0  0
    6.6649   -6.2466   29.4599 C   0  0  0  0  0  0  0  0  0  0  0  0
    7.1041   -7.4832   29.9216 C   0  0  0  0  0  0  0  0  0  0  0  0
    7.0547   -8.6107   29.1069 C   0  0  0  0  0  0  0  0  0  0  0  0
    6.5588   -8.5353   27.8020 C   0  0  0  0  0  0  0  0  0  0  0  0
    6.0895   -7.3082   27.3079 C   0  0  0  0  0  0  0  0  0  0  0  0
    5.4994   -6.8459   26.0989 C   0  0  0  0  0  0  0  0  0  0  0  0
    4.7915   -7.6200   24.9630 C   0  0  0  0  0  0  0  0  0  0  0  0
    3.3985   -8.0607   25.3548 C   0  0  0  0  0  0  0  0  0  0  0  0
    4.4171   -9.0718   24.9657 C   0  0  0  0  0  0  0  0  0  0  0  0
    6.5231   -5.6626   23.8604 H   0  0  0  0  0  0  0  0  0  0  0  0
    5.7949   -3.1041   22.2235 H   0  0  0  0  0  0  0  0  0  0  0  0
    6.3951   -2.8333   23.2505 H   0  0  0  0  0  0  0  0  0  0  0  0
    7.3566   -3.0182   21.1642 H   0  0  0  0  0  0  0  0  0  0  0  0
    6.9513   -4.5151   20.1442 H   0  0  0  0  0  0  0  0  0  0  0  0
   11.5800   -4.2776   16.9061 H   0  0  0  0  0  0  0  0  0  0  0  0
   10.0629   -1.1803   16.5570 H   0  0  0  0  0  0  0  0  0  0  0  0
    8.3341   -0.9174   19.2264 H   0  0  0  0  0  0  0  0  0  0  0  0
    5.8651   -4.1508   27.7050 H   0  0  0  0  0  0  0  0  0  0  0  0
    6.7374   -5.3579   30.0773 H   0  0  0  0  0  0  0  0  0  0  0  0
    7.5124   -7.5704   30.9259 H   0  0  0  0  0  0  0  0  0  0  0  0
    7.4097   -9.5660   29.4889 H   0  0  0  0  0  0  0  0  0  0  0  0
    6.5800   -9.4194   27.1730 H   0  0  0  0  0  0  0  0  0  0  0  0
    4.9236   -7.1913   23.9785 H   0  0  0  0  0  0  0  0  0  0  0  0
    3.1098   -7.9967   26.3928 H   0  0  0  0  0  0  0  0  0  0  0  0
    2.6060   -7.8847   24.6423 H   0  0  0  0  0  0  0  0  0  0  0  0
    4.1800   -9.6011   24.0498 H   0  0  0  0  0  0  0  0  0  0  0  0
    5.0042   -9.7066   25.6011 H   0  0  0  0  0  0  0  0  0  0  0  0
  1  2  2  0
  2  3  1  0
  3  4  1  0
  4  5  1  0
  5  6  1  0
  6  7  2  0
  7  8  1  0
  8  9  2  0
  9 10  1  0
  2 11  1  0
 11 12  1  0
 12 13  1  0
 13 14  2  0
 14 15  1  0
 15 16  2  0
 16 17  1  0
 17 18  2  0
 18 19  1  0
 19 20  1  0
 20 21  1  0
 21 22  1  0
 10  6  1  0
 19 11  2  0
 22 20  1  0
 18 13  1  0
  3 23  1  0
  4 24  1  0
  4 25  1  0
  5 26  1  0
  5 27  1  0
  8 28  1  0
  9 29  1  0
 10 30  1  0
 12 31  1  0
 14 32  1  0
 15 33  1  0
 16 34  1  0
 17 35  1  0
 20 36  1  0
 21 37  1  0
 21 38  1  0
 22 39  1  0
 22 40  1  0
M  END
>  <Energy>  (1356) 
912.40308104615792

>  <compound_id>  (1356) 
47234

>  <target_id>  (1356) 
1

>  <reference_id>  (1356) 
40

>  <inspiration_ids>  (1356) 
[40, 80]

>  <energy_score>  (1356) 
896.2769416141127

>  <distance_score>  (1356) 
6.719310130715269

>  <path>  (1356) 
/opt/xchem-fragalysis-2/maxwin/BulkDock/SCRATCH/511023/C47234-P40/C47234-P40.minimised.mol

>  <scratch_subdir>  (1356) 
/opt/xchem-fragalysis-2/maxwin/BulkDock/SCRATCH/511023/C47234-P40

>  <fragmenstein_runtime>  (1356) 
11.902368545532227

>  <fragmenstein_outcome>  (1356) 
too moved

>  <fragmenstein_mode>  (1356) 
expansion

>  <fragmenstein_error>  (1356) 


$$$$
C47234-P80
     RDKit          3D

 40 43  0  0  0  0  0  0  0  0999 V2000
    6.4910    0.0926   27.5127 O   0  0  0  0  0  0  0  0  0  0  0  0
    6.6153   -1.0658   27.7812 C   0  0  0  0  0  0  0  0  0  0  0  0
    7.6822   -1.9743   27.5140 N   0  0  0  0  0  0  0  0  0  0  0  0
    8.9078   -1.8097   26.7504 C   0  0  0  0  0  0  0  0  0  0  0  0
    9.6857   -0.4964   26.8805 C   0  0  0  0  0  0  0  0  0  0  0  0
   10.7723   -0.4026   25.8308 C   0  0  0  0  0  0  0  0  0  0  0  0
   11.6694   -1.3225   25.5334 N   0  0  0  0  0  0  0  0  0  0  0  0
   12.4246   -0.8017   24.5136 C   0  0  0  0  0  0  0  0  0  0  0  0
   11.9905    0.4587   24.1826 C   0  0  0  0  0  0  0  0  0  0  0  0
   10.9455    0.7027   25.0263 N   0  0  0  0  0  0  0  0  0  0  0  0
    5.4839   -1.7659   28.4082 C   0  0  0  0  0  0  0  0  0  0  0  0
    4.1968   -1.6545   27.9093 N   0  0  0  0  0  0  0  0  0  0  0  0
    3.3082   -2.4334   28.6215 C   0  0  0  0  0  0  0  0  0  0  0  0
    1.9359   -2.6429   28.4305 C   0  0  0  0  0  0  0  0  0  0  0  0
    1.2828   -3.5266   29.2957 C   0  0  0  0  0  0  0  0  0  0  0  0
    1.9793   -4.1778   30.3099 C   0  0  0  0  0  0  0  0  0  0  0  0
    3.3496   -3.9509   30.4929 C   0  0  0  0  0  0  0  0  0  0  0  0
    4.0309   -3.0626   29.6331 C   0  0  0  0  0  0  0  0  0  0  0  0
    5.3799   -2.6242   29.4923 C   0  0  0  0  0  0  0  0  0  0  0  0
    6.5502   -3.0728   30.4045 C   0  0  0  0  0  0  0  0  0  0  0  0
    7.4559   -2.0331   31.0124 C   0  0  0  0  0  0  0  0  0  0  0  0
    6.4836   -2.7742   31.8801 C   0  0  0  0  0  0  0  0  0  0  0  0
    7.4080   -2.9015   27.8145 H   0  0  0  0  0  0  0  0  0  0  0  0
    9.5529   -2.6574   27.0079 H   0  0  0  0  0  0  0  0  0  0  0  0
    8.6073   -1.9406   25.7115 H   0  0  0  0  0  0  0  0  0  0  0  0
    9.0100    0.3600   26.7847 H   0  0  0  0  0  0  0  0  0  0  0  0
   10.1395   -0.4318   27.8760 H   0  0  0  0  0  0  0  0  0  0  0  0
   13.2270   -1.3680   24.0592 H   0  0  0  0  0  0  0  0  0  0  0  0
   12.3184    1.1659   23.4354 H   0  0  0  0  0  0  0  0  0  0  0  0
   10.3893    1.5449   25.0639 H   0  0  0  0  0  0  0  0  0  0  0  0
    3.9620   -1.1219   27.0814 H   0  0  0  0  0  0  0  0  0  0  0  0
    1.3990   -2.1489   27.6257 H   0  0  0  0  0  0  0  0  0  0  0  0
    0.2193   -3.7102   29.1635 H   0  0  0  0  0  0  0  0  0  0  0  0
    1.4584   -4.8682   30.9706 H   0  0  0  0  0  0  0  0  0  0  0  0
    3.8802   -4.4590   31.2921 H   0  0  0  0  0  0  0  0  0  0  0  0
    7.0051   -4.0142   30.1141 H   0  0  0  0  0  0  0  0  0  0  0  0
    7.2571   -0.9850   30.8169 H   0  0  0  0  0  0  0  0  0  0  0  0
    8.5091   -2.2721   31.1006 H   0  0  0  0  0  0  0  0  0  0  0  0
    6.8752   -3.5159   32.5656 H   0  0  0  0  0  0  0  0  0  0  0  0
    5.6304   -2.2241   32.2617 H   0  0  0  0  0  0  0  0  0  0  0  0
  1  2  2  0
  2  3  1  0
  3  4  1  0
  4  5  1  0
  5  6  1  0
  6  7  2  0
  7  8  1  0
  8  9  2  0
  9 10  1  0
  2 11  1  0
 11 12  1  0
 12 13  1  0
 13 14  2  0
 14 15  1  0
 15 16  2  0
 16 17  1  0
 17 18  2  0
 18 19  1  0
 19 20  1  0
 20 21  1  0
 21 22  1  0
 10  6  1  0
 19 11  2  0
 22 20  1  0
 18 13  1  0
  3 23  1  0
  4 24  1  0
  4 25  1  0
  5 26  1  0
  5 27  1  0
  8 28  1  0
  9 29  1  0
 10 30  1  0
 12 31  1  0
 14 32  1  0
 15 33  1  0
 16 34  1  0
 17 35  1  0
 20 36  1  0
 21 37  1  0
 21 38  1  0
 22 39  1  0
 22 40  1  0
M  END
>  <Energy>  (1357) 
-2.1055273863055612

>  <compound_id>  (1357) 
47234

>  <target_id>  (1357) 
1

>  <reference_id>  (1357) 
80

>  <inspiration_ids>  (1357) 
[40, 80]

>  <energy_score>  (1357) 
-18.23166681835454

>  <distance_score>  (1357) 
7.824821018437234

>  <path>  (1357) 
/opt/xchem-fragalysis-2/maxwin/BulkDock/SCRATCH/511023/C47234-P80/C47234-P80.minimised.mol

>  <scratch_subdir>  (1357) 
/opt/xchem-fragalysis-2/maxwin/BulkDock/SCRATCH/511023/C47234-P80

>  <fragmenstein_runtime>  (1357) 
14.60360050201416

>  <fragmenstein_outcome>  (1357) 
too moved

>  <fragmenstein_mode>  (1357) 
expansion

>  <fragmenstein_error>  (1357) 


$$$$
C47235-P40
     RDKit          3D

 46 48  0  0  0  0  0  0  0  0999 V2000
   -0.0671   -6.5309   33.4657 C   0  0  0  0  0  0  0  0  0  0  0  0
    0.6774   -5.5221   32.6041 C   0  0  0  0  0  0  0  0  0  0  0  0
   -0.2855   -4.7128   31.7336 C   0  0  0  0  0  0  0  0  0  0  0  0
    0.4431   -3.7351   30.8103 C   0  0  0  0  0  0  0  0  0  0  0  0
    1.1745   -4.4859   29.8391 O   0  0  0  0  0  0  0  0  0  0  0  0
    1.9331   -3.7706   28.9497 C   0  0  0  0  0  0  0  0  0  0  0  0
    2.0458   -2.3830   28.8897 C   0  0  0  0  0  0  0  0  0  0  0  0
    2.8862   -1.7563   27.9474 C   0  0  0  0  0  0  0  0  0  0  0  0
    3.6121   -2.5340   27.0264 C   0  0  0  0  0  0  0  0  0  0  0  0
    4.5314   -2.2494   25.9485 C   0  0  0  0  0  0  0  0  0  0  0  0
    4.9140   -3.4509   25.3927 C   0  0  0  0  0  0  0  0  0  0  0  0
    5.9301   -3.9532   24.4550 C   0  0  0  0  0  0  0  0  0  0  0  0
    6.4712   -4.9674   24.9206 O   0  0  0  0  0  0  0  0  0  0  0  0
    6.2395   -3.0971   22.9653 N   0  0  0  0  0  0  0  0  0  0  0  0
    7.4634   -3.5237   21.4523 C   0  0  0  0  0  0  0  0  0  0  0  0
    7.0588   -5.1881   22.2998 C   0  0  0  0  0  0  0  0  0  0  0  0
    9.2573   -2.8972   20.4536 C   0  0  0  0  0  0  0  0  0  0  0  0
    8.8194   -1.7625   18.9752 N   0  0  0  0  0  0  0  0  0  0  0  0
   10.4265   -1.9898   17.4492 C   0  0  0  0  0  0  0  0  0  0  0  0
   11.8212   -2.5996   18.6396 C   0  0  0  0  0  0  0  0  0  0  0  0
   11.2496   -2.7682   20.5660 N   0  0  0  0  0  0  0  0  0  0  0  0
    4.2512   -4.4332   26.1200 N   0  0  0  0  0  0  0  0  0  0  0  0
    3.4568   -3.9132   27.0986 C   0  0  0  0  0  0  0  0  0  0  0  0
    2.6453   -4.5577   28.0425 C   0  0  0  0  0  0  0  0  0  0  0  0
    0.6381   -7.0951   34.0839 H   0  0  0  0  0  0  0  0  0  0  0  0
   -0.7781   -6.0306   34.1309 H   0  0  0  0  0  0  0  0  0  0  0  0
   -0.6200   -7.2443   32.8458 H   0  0  0  0  0  0  0  0  0  0  0  0
    1.3970   -6.0543   31.9746 H   0  0  0  0  0  0  0  0  0  0  0  0
    1.2501   -4.8470   33.2502 H   0  0  0  0  0  0  0  0  0  0  0  0
   -0.9772   -4.1551   32.3752 H   0  0  0  0  0  0  0  0  0  0  0  0
   -0.8744   -5.4096   31.1277 H   0  0  0  0  0  0  0  0  0  0  0  0
    1.1178   -3.1062   31.4034 H   0  0  0  0  0  0  0  0  0  0  0  0
   -0.3021   -3.1099   30.3042 H   0  0  0  0  0  0  0  0  0  0  0  0
    1.4963   -1.7372   29.5674 H   0  0  0  0  0  0  0  0  0  0  0  0
    2.9603   -0.6727   27.9273 H   0  0  0  0  0  0  0  0  0  0  0  0
    4.9094   -1.2758   25.6684 H   0  0  0  0  0  0  0  0  0  0  0  0
    5.5574   -2.3533   22.8491 H   0  0  0  0  0  0  0  0  0  0  0  0
    6.6603   -2.9619   20.9744 H   0  0  0  0  0  0  0  0  0  0  0  0
    7.2356   -4.9548   23.2705 H   0  0  0  0  0  0  0  0  0  0  0  0
    6.7946   -6.0866   21.7363 H   0  0  0  0  0  0  0  0  0  0  0  0
    6.2285   -5.5703   22.9407 H   0  0  0  0  0  0  0  0  0  0  0  0
   10.3852   -1.3833   16.5316 H   0  0  0  0  0  0  0  0  0  0  0  0
   12.9013   -2.7019   18.5958 H   0  0  0  0  0  0  0  0  0  0  0  0
   11.5771   -3.6627   20.8720 H   0  0  0  0  0  0  0  0  0  0  0  0
    4.4476   -5.4163   25.9737 H   0  0  0  0  0  0  0  0  0  0  0  0
    2.5776   -5.6392   28.0740 H   0  0  0  0  0  0  0  0  0  0  0  0
  1  2  1  0
  2  3  1  0
  3  4  1  0
  4  5  1  0
  5  6  1  0
  6  7  2  0
  7  8  1  0
  8  9  2  0
  9 10  1  0
 10 11  2  0
 11 12  1  0
 12 13  2  0
 12 14  1  0
 14 15  1  0
 15 16  1  0
 15 17  1  0
 17 18  2  0
 18 19  1  0
 19 20  2  0
 20 21  1  0
 11 22  1  0
 22 23  1  0
 23 24  2  0
 24  6  1  0
 23  9  1  0
 21 17  1  0
  1 25  1  0
  1 26  1  0
  1 27  1  0
  2 28  1  0
  2 29  1  0
  3 30  1  0
  3 31  1  0
  4 32  1  0
  4 33  1  0
  7 34  1  0
  8 35  1  0
 10 36  1  0
 14 37  1  0
 15 38  1  0
 16 39  1  0
 16 40  1  0
 16 41  1  0
 19 42  1  0
 20 43  1  0
 21 44  1  0
 22 45  1  0
 24 46  1  0
M  END
>  <Energy>  (1358) 
1161.7752112580542

>  <compound_id>  (1358) 
47235

>  <target_id>  (1358) 
1

>  <reference_id>  (1358) 
40

>  <inspiration_ids>  (1358) 
[40, 80]

>  <energy_score>  (1358) 
1152.6441423704034

>  <distance_score>  (1358) 
6.435747644954736

>  <path>  (1358) 
/opt/xchem-fragalysis-2/maxwin/BulkDock/SCRATCH/511023/C47235-P40/C47235-P40.minimised.mol

>  <scratch_subdir>  (1358) 
/opt/xchem-fragalysis-2/maxwin/BulkDock/SCRATCH/511023/C47235-P40

>  <fragmenstein_runtime>  (1358) 
12.838739156723022

>  <fragmenstein_outcome>  (1358) 
too moved

>  <fragmenstein_mode>  (1358) 
expansion

>  <fragmenstein_error>  (1358) 


$$$$
C47235-P80
     RDKit          3D

 46 48  0  0  0  0  0  0  0  0999 V2000
   -0.3133   -4.1724   32.4644 C   0  0  0  0  0  0  0  0  0  0  0  0
   -0.2673   -3.6256   31.0459 C   0  0  0  0  0  0  0  0  0  0  0  0
    0.9816   -2.7955   30.7504 C   0  0  0  0  0  0  0  0  0  0  0  0
    2.2754   -3.5965   30.8707 C   0  0  0  0  0  0  0  0  0  0  0  0
    3.3590   -2.7762   30.4225 O   0  0  0  0  0  0  0  0  0  0  0  0
    4.5368   -3.4364   30.1869 C   0  0  0  0  0  0  0  0  0  0  0  0
    4.8925   -4.6549   30.7617 C   0  0  0  0  0  0  0  0  0  0  0  0
    6.1002   -5.2893   30.4287 C   0  0  0  0  0  0  0  0  0  0  0  0
    6.9761   -4.6745   29.5151 C   0  0  0  0  0  0  0  0  0  0  0  0
    8.2458   -5.0171   28.9630 C   0  0  0  0  0  0  0  0  0  0  0  0
    8.6844   -3.9789   28.1446 C   0  0  0  0  0  0  0  0  0  0  0  0
    9.9563   -3.7687   27.4154 C   0  0  0  0  0  0  0  0  0  0  0  0
   10.3889   -2.6565   27.3439 O   0  0  0  0  0  0  0  0  0  0  0  0
   10.5088   -5.0131   26.9835 N   0  0  0  0  0  0  0  0  0  0  0  0
   11.8088   -5.3354   26.4097 C   0  0  0  0  0  0  0  0  0  0  0  0
   12.9151   -5.1022   27.4399 C   0  0  0  0  0  0  0  0  0  0  0  0
   12.1513   -4.6714   25.0980 C   0  0  0  0  0  0  0  0  0  0  0  0
   12.5295   -5.2797   23.9809 N   0  0  0  0  0  0  0  0  0  0  0  0
   12.9951   -4.2880   23.1513 C   0  0  0  0  0  0  0  0  0  0  0  0
   12.9260   -3.0721   23.7799 C   0  0  0  0  0  0  0  0  0  0  0  0
   12.2834   -3.3089   24.9617 N   0  0  0  0  0  0  0  0  0  0  0  0
    7.6699   -3.0352   28.1792 N   0  0  0  0  0  0  0  0  0  0  0  0
    6.6321   -3.4303   29.0000 C   0  0  0  0  0  0  0  0  0  0  0  0
    5.4200   -2.7912   29.3132 C   0  0  0  0  0  0  0  0  0  0  0  0
   -1.2569   -4.6985   32.6336 H   0  0  0  0  0  0  0  0  0  0  0  0
    0.4948   -4.8869   32.6470 H   0  0  0  0  0  0  0  0  0  0  0  0
   -0.2368   -3.3653   33.1995 H   0  0  0  0  0  0  0  0  0  0  0  0
   -1.1525   -3.0004   30.8800 H   0  0  0  0  0  0  0  0  0  0  0  0
   -0.3298   -4.4589   30.3364 H   0  0  0  0  0  0  0  0  0  0  0  0
    1.0269   -1.9259   31.4177 H   0  0  0  0  0  0  0  0  0  0  0  0
    0.9063   -2.3859   29.7351 H   0  0  0  0  0  0  0  0  0  0  0  0
    2.4432   -3.8700   31.9180 H   0  0  0  0  0  0  0  0  0  0  0  0
    2.1980   -4.5005   30.2534 H   0  0  0  0  0  0  0  0  0  0  0  0
    4.2524   -5.1253   31.5006 H   0  0  0  0  0  0  0  0  0  0  0  0
    6.3725   -6.2280   30.9000 H   0  0  0  0  0  0  0  0  0  0  0  0
    8.8123   -5.9086   29.1968 H   0  0  0  0  0  0  0  0  0  0  0  0
    9.8285   -5.7432   27.1314 H   0  0  0  0  0  0  0  0  0  0  0  0
   11.7649   -6.4149   26.2155 H   0  0  0  0  0  0  0  0  0  0  0  0
   12.7132   -5.6642   28.3587 H   0  0  0  0  0  0  0  0  0  0  0  0
   12.9963   -4.0443   27.7147 H   0  0  0  0  0  0  0  0  0  0  0  0
   13.8890   -5.4229   27.0537 H   0  0  0  0  0  0  0  0  0  0  0  0
   13.3758   -4.5032   22.1619 H   0  0  0  0  0  0  0  0  0  0  0  0
   13.2211   -2.0775   23.4811 H   0  0  0  0  0  0  0  0  0  0  0  0
   12.0142   -2.6275   25.6626 H   0  0  0  0  0  0  0  0  0  0  0  0
    7.6795   -2.1832   27.6349 H   0  0  0  0  0  0  0  0  0  0  0  0
    5.1599   -1.8357   28.8686 H   0  0  0  0  0  0  0  0  0  0  0  0
  1  2  1  0
  2  3  1  0
  3  4  1  0
  4  5  1  0
  5  6  1  0
  6  7  2  0
  7  8  1  0
  8  9  2  0
  9 10  1  0
 10 11  2  0
 11 12  1  0
 12 13  2  0
 12 14  1  0
 14 15  1  0
 15 16  1  0
 15 17  1  0
 17 18  2  0
 18 19  1  0
 19 20  2  0
 20 21  1  0
 11 22  1  0
 22 23  1  0
 23 24  2  0
 24  6  1  0
 23  9  1  0
 21 17  1  0
  1 25  1  0
  1 26  1  0
  1 27  1  0
  2 28  1  0
  2 29  1  0
  3 30  1  0
  3 31  1  0
  4 32  1  0
  4 33  1  0
  7 34  1  0
  8 35  1  0
 10 36  1  0
 14 37  1  0
 15 38  1  0
 16 39  1  0
 16 40  1  0
 16 41  1  0
 19 42  1  0
 20 43  1  0
 21 44  1  0
 22 45  1  0
 24 46  1  0
M  END
>  <Energy>  (1359) 
-15.202558673204962

>  <compound_id>  (1359) 
47235

>  <target_id>  (1359) 
1

>  <reference_id>  (1359) 
80

>  <inspiration_ids>  (1359) 
[40, 80]

>  <energy_score>  (1359) 
-24.333627560869502

>  <distance_score>  (1359) 
8.688232524311085

>  <path>  (1359) 
/opt/xchem-fragalysis-2/maxwin/BulkDock/SCRATCH/511023/C47235-P80/C47235-P80.minimised.mol

>  <scratch_subdir>  (1359) 
/opt/xchem-fragalysis-2/maxwin/BulkDock/SCRATCH/511023/C47235-P80

>  <fragmenstein_runtime>  (1359) 
26.31185746192932

>  <fragmenstein_outcome>  (1359) 
too moved

>  <fragmenstein_mode>  (1359) 
expansion

>  <fragmenstein_error>  (1359) 


$$$$
C47236-P40
     RDKit          3D

 37 39  0  0  0  0  0  0  0  0999 V2000
    1.9147   -4.1956   30.6569 C   0  0  0  0  0  0  0  0  0  0  0  0
    2.0526   -5.1839   29.6397 O   0  0  0  0  0  0  0  0  0  0  0  0
    3.2192   -5.1364   28.9205 C   0  0  0  0  0  0  0  0  0  0  0  0
    3.1637   -5.7818   27.6845 C   0  0  0  0  0  0  0  0  0  0  0  0
    4.2776   -5.8359   26.8373 C   0  0  0  0  0  0  0  0  0  0  0  0
    5.4805   -5.2331   27.2520 C   0  0  0  0  0  0  0  0  0  0  0  0
    6.7755   -5.0881   26.6664 C   0  0  0  0  0  0  0  0  0  0  0  0
    7.6055   -4.4016   27.5442 C   0  0  0  0  0  0  0  0  0  0  0  0
    9.0262   -3.9774   27.5013 C   0  0  0  0  0  0  0  0  0  0  0  0
    9.5536   -3.7747   28.5552 O   0  0  0  0  0  0  0  0  0  0  0  0
    9.5273   -3.8481   26.1665 N   0  0  0  0  0  0  0  0  0  0  0  0
   10.8058   -3.3366   25.6639 C   0  0  0  0  0  0  0  0  0  0  0  0
   11.7589   -4.3893   25.0676 C   0  0  0  0  0  0  0  0  0  0  0  0
   12.3041   -4.1007   23.6780 C   0  0  0  0  0  0  0  0  0  0  0  0
   12.3228   -4.9505   22.6630 N   0  0  0  0  0  0  0  0  0  0  0  0
   12.9703   -4.3215   21.6303 C   0  0  0  0  0  0  0  0  0  0  0  0
   13.4038   -3.0852   22.0306 C   0  0  0  0  0  0  0  0  0  0  0  0
   12.9468   -2.9394   23.3159 N   0  0  0  0  0  0  0  0  0  0  0  0
    6.8140   -4.1493   28.6563 N   0  0  0  0  0  0  0  0  0  0  0  0
    5.5251   -4.6127   28.4954 C   0  0  0  0  0  0  0  0  0  0  0  0
    4.4112   -4.5417   29.3523 C   0  0  0  0  0  0  0  0  0  0  0  0
    0.8783   -4.2215   31.0071 H   0  0  0  0  0  0  0  0  0  0  0  0
    2.5601   -4.4250   31.5107 H   0  0  0  0  0  0  0  0  0  0  0  0
    2.1120   -3.1898   30.2705 H   0  0  0  0  0  0  0  0  0  0  0  0
    2.2362   -6.2409   27.3672 H   0  0  0  0  0  0  0  0  0  0  0  0
    4.2204   -6.3349   25.8729 H   0  0  0  0  0  0  0  0  0  0  0  0
    7.0590   -5.4650   25.6929 H   0  0  0  0  0  0  0  0  0  0  0  0
    8.7689   -4.0260   25.5090 H   0  0  0  0  0  0  0  0  0  0  0  0
   10.5656   -2.5556   24.9378 H   0  0  0  0  0  0  0  0  0  0  0  0
   11.3028   -2.8465   26.5090 H   0  0  0  0  0  0  0  0  0  0  0  0
   12.6217   -4.4994   25.7374 H   0  0  0  0  0  0  0  0  0  0  0  0
   11.2685   -5.3697   25.0504 H   0  0  0  0  0  0  0  0  0  0  0  0
   13.0967   -4.7974   20.6656 H   0  0  0  0  0  0  0  0  0  0  0  0
   13.9492   -2.3017   21.5268 H   0  0  0  0  0  0  0  0  0  0  0  0
   13.0313   -2.1036   23.8785 H   0  0  0  0  0  0  0  0  0  0  0  0
    7.1663   -3.6721   29.4750 H   0  0  0  0  0  0  0  0  0  0  0  0
    4.5041   -4.0532   30.3143 H   0  0  0  0  0  0  0  0  0  0  0  0
  1  2  1  0
  2  3  1  0
  3  4  2  0
  4  5  1  0
  5  6  2  0
  6  7  1  0
  7  8  2  0
  8  9  1  0
  9 10  2  0
  9 11  1  0
 11 12  1  0
 12 13  1  0
 13 14  1  0
 14 15  2  0
 15 16  1  0
 16 17  2  0
 17 18  1  0
  8 19  1  0
 19 20  1  0
 20 21  2  0
 21  3  1  0
 20  6  1  0
 18 14  1  0
  1 22  1  0
  1 23  1  0
  1 24  1  0
  4 25  1  0
  5 26  1  0
  7 27  1  0
 11 28  1  0
 12 29  1  0
 12 30  1  0
 13 31  1  0
 13 32  1  0
 16 33  1  0
 17 34  1  0
 18 35  1  0
 19 36  1  0
 21 37  1  0
M  END
>  <Energy>  (1360) 
-0.56183972831229934

>  <compound_id>  (1360) 
47236

>  <target_id>  (1360) 
1

>  <reference_id>  (1360) 
40

>  <inspiration_ids>  (1360) 
[40, 80]

>  <energy_score>  (1360) 
-6.377731752700242

>  <distance_score>  (1360) 
7.489996643124635

>  <path>  (1360) 
/opt/xchem-fragalysis-2/maxwin/BulkDock/SCRATCH/511023/C47236-P40/C47236-P40.minimised.mol

>  <scratch_subdir>  (1360) 
/opt/xchem-fragalysis-2/maxwin/BulkDock/SCRATCH/511023/C47236-P40

>  <fragmenstein_runtime>  (1360) 
12.730869054794312

>  <fragmenstein_outcome>  (1360) 
too moved

>  <fragmenstein_mode>  (1360) 
expansion

>  <fragmenstein_error>  (1360) 


$$$$
C47236-P80
     RDKit          3D

 37 39  0  0  0  0  0  0  0  0999 V2000
   -0.0001   -5.6661   31.2412 C   0  0  0  0  0  0  0  0  0  0  0  0
   -0.0481   -4.8760   30.0573 O   0  0  0  0  0  0  0  0  0  0  0  0
    1.0237   -4.0504   29.8354 C   0  0  0  0  0  0  0  0  0  0  0  0
    2.0695   -3.8292   30.7270 C   0  0  0  0  0  0  0  0  0  0  0  0
    3.1121   -2.9495   30.4052 C   0  0  0  0  0  0  0  0  0  0  0  0
    3.1161   -2.2993   29.1584 C   0  0  0  0  0  0  0  0  0  0  0  0
    3.9774   -1.3629   28.5287 C   0  0  0  0  0  0  0  0  0  0  0  0
    3.5414   -1.1369   27.2274 C   0  0  0  0  0  0  0  0  0  0  0  0
    4.2550   -0.3658   26.1873 C   0  0  0  0  0  0  0  0  0  0  0  0
    4.8550    0.6116   26.5271 O   0  0  0  0  0  0  0  0  0  0  0  0
    4.1686   -1.0122   24.9166 N   0  0  0  0  0  0  0  0  0  0  0  0
    4.8792   -0.7407   23.6194 C   0  0  0  0  0  0  0  0  0  0  0  0
    4.7180    0.6706   22.1984 C   0  0  0  0  0  0  0  0  0  0  0  0
    5.7177    1.4234   21.1722 C   0  0  0  0  0  0  0  0  0  0  0  0
    5.6644    2.7295   20.9350 N   0  0  0  0  0  0  0  0  0  0  0  0
    6.1445    2.9265   19.6683 C   0  0  0  0  0  0  0  0  0  0  0  0
    6.5565    1.7405   19.1278 C   0  0  0  0  0  0  0  0  0  0  0  0
    6.4390    0.8385   20.1536 N   0  0  0  0  0  0  0  0  0  0  0  0
    2.3836   -1.8731   27.1054 N   0  0  0  0  0  0  0  0  0  0  0  0
    2.0883   -2.5627   28.2638 C   0  0  0  0  0  0  0  0  0  0  0  0
    1.0171   -3.4081   28.5900 C   0  0  0  0  0  0  0  0  0  0  0  0
   -0.8547   -6.3493   31.2257 H   0  0  0  0  0  0  0  0  0  0  0  0
    0.9073   -6.2717   31.2693 H   0  0  0  0  0  0  0  0  0  0  0  0
   -0.0893   -5.0384   32.1337 H   0  0  0  0  0  0  0  0  0  0  0  0
    2.0992   -4.3048   31.7024 H   0  0  0  0  0  0  0  0  0  0  0  0
    3.9084   -2.7625   31.1198 H   0  0  0  0  0  0  0  0  0  0  0  0
    4.8844   -0.9411   28.9439 H   0  0  0  0  0  0  0  0  0  0  0  0
    3.6353   -1.8635   25.0163 H   0  0  0  0  0  0  0  0  0  0  0  0
    5.7755   -1.1153   24.0208 H   0  0  0  0  0  0  0  0  0  0  0  0
    4.7297   -1.6578   23.0366 H   0  0  0  0  0  0  0  0  0  0  0  0
    4.0316    0.3435   21.4791 H   0  0  0  0  0  0  0  0  0  0  0  0
    3.9982    1.4825   22.4926 H   0  0  0  0  0  0  0  0  0  0  0  0
    6.1279    3.9068   19.2093 H   0  0  0  0  0  0  0  0  0  0  0  0
    6.9214    1.4646   18.1498 H   0  0  0  0  0  0  0  0  0  0  0  0
    6.5263   -0.1654   20.0482 H   0  0  0  0  0  0  0  0  0  0  0  0
    1.8535   -1.9509   26.2503 H   0  0  0  0  0  0  0  0  0  0  0  0
    0.1992   -3.5741   27.8999 H   0  0  0  0  0  0  0  0  0  0  0  0
  1  2  1  0
  2  3  1  0
  3  4  2  0
  4  5  1  0
  5  6  2  0
  6  7  1  0
  7  8  2  0
  8  9  1  0
  9 10  2  0
  9 11  1  0
 11 12  1  0
 12 13  1  0
 13 14  1  0
 14 15  2  0
 15 16  1  0
 16 17  2  0
 17 18  1  0
  8 19  1  0
 19 20  1  0
 20 21  2  0
 21  3  1  0
 20  6  1  0
 18 14  1  0
  1 22  1  0
  1 23  1  0
  1 24  1  0
  4 25  1  0
  5 26  1  0
  7 27  1  0
 11 28  1  0
 12 29  1  0
 12 30  1  0
 13 31  1  0
 13 32  1  0
 16 33  1  0
 17 34  1  0
 18 35  1  0
 19 36  1  0
 21 37  1  0
M  END
>  <Energy>  (1361) 
124.73209533651163

>  <compound_id>  (1361) 
47236

>  <target_id>  (1361) 
1

>  <reference_id>  (1361) 
80

>  <inspiration_ids>  (1361) 
[40, 80]

>  <energy_score>  (1361) 
118.91620331212823

>  <distance_score>  (1361) 
7.423615088641802

>  <path>  (1361) 
/opt/xchem-fragalysis-2/maxwin/BulkDock/SCRATCH/511023/C47236-P80/C47236-P80.minimised.mol

>  <scratch_subdir>  (1361) 
/opt/xchem-fragalysis-2/maxwin/BulkDock/SCRATCH/511023/C47236-P80

>  <fragmenstein_runtime>  (1361) 
14.567049503326416

>  <fragmenstein_outcome>  (1361) 
too moved

>  <fragmenstein_mode>  (1361) 
expansion

>  <fragmenstein_error>  (1361) 


$$$$
C47237-P40
     RDKit          3D

 36 38  0  0  0  0  0  0  0  0999 V2000
    5.0247   -4.4210   30.0230 C   0  0  0  0  0  0  0  0  0  0  0  0
    4.5510   -5.2395   28.8560 C   0  0  0  0  0  0  0  0  0  0  0  0
    3.2507   -5.0909   28.3743 C   0  0  0  0  0  0  0  0  0  0  0  0
    2.8298   -5.7715   27.2289 C   0  0  0  0  0  0  0  0  0  0  0  0
    3.7442   -6.6055   26.5702 C   0  0  0  0  0  0  0  0  0  0  0  0
    3.6331   -7.3651   25.4285 N   0  0  0  0  0  0  0  0  0  0  0  0
    4.8078   -8.0395   25.1289 C   0  0  0  0  0  0  0  0  0  0  0  0
    4.8593   -8.9507   23.9673 C   0  0  0  0  0  0  0  0  0  0  0  0
    3.8521   -9.0678   23.3403 O   0  0  0  0  0  0  0  0  0  0  0  0
    6.1200   -9.5899   23.8231 N   0  0  0  0  0  0  0  0  0  0  0  0
    6.5534  -10.6528   22.9333 C   0  0  0  0  0  0  0  0  0  0  0  0
    7.7737  -11.3647   23.5080 C   0  0  0  0  0  0  0  0  0  0  0  0
    6.8154  -10.1278   21.5418 C   0  0  0  0  0  0  0  0  0  0  0  0
    7.9653  -10.1001   20.8849 N   0  0  0  0  0  0  0  0  0  0  0  0
    7.6641   -9.7016   19.6074 C   0  0  0  0  0  0  0  0  0  0  0  0
    6.3452   -9.3370   19.5195 C   0  0  0  0  0  0  0  0  0  0  0  0
    5.8193   -9.5990   20.7561 N   0  0  0  0  0  0  0  0  0  0  0  0
    5.7070   -7.6507   26.1103 C   0  0  0  0  0  0  0  0  0  0  0  0
    5.0474   -6.7708   27.0221 C   0  0  0  0  0  0  0  0  0  0  0  0
    5.4522   -6.0829   28.1828 C   0  0  0  0  0  0  0  0  0  0  0  0
    4.2035   -4.2214   30.7193 H   0  0  0  0  0  0  0  0  0  0  0  0
    5.4283   -3.4669   29.6701 H   0  0  0  0  0  0  0  0  0  0  0  0
    5.8046   -4.9501   30.5806 H   0  0  0  0  0  0  0  0  0  0  0  0
    2.5618   -4.4069   28.8672 H   0  0  0  0  0  0  0  0  0  0  0  0
    1.8317   -5.6134   26.8536 H   0  0  0  0  0  0  0  0  0  0  0  0
    2.8181   -7.4535   24.8371 H   0  0  0  0  0  0  0  0  0  0  0  0
    6.7183   -9.3083   24.5823 H   0  0  0  0  0  0  0  0  0  0  0  0
    5.7230  -11.3671   22.8702 H   0  0  0  0  0  0  0  0  0  0  0  0
    7.5529  -11.7696   24.5018 H   0  0  0  0  0  0  0  0  0  0  0  0
    8.6243  -10.6812   23.6138 H   0  0  0  0  0  0  0  0  0  0  0  0
    8.0867  -12.1952   22.8659 H   0  0  0  0  0  0  0  0  0  0  0  0
    8.4199   -9.6987   18.8354 H   0  0  0  0  0  0  0  0  0  0  0  0
    5.7348   -8.9632   18.7104 H   0  0  0  0  0  0  0  0  0  0  0  0
    4.8564   -9.4903   21.0541 H   0  0  0  0  0  0  0  0  0  0  0  0
    6.7391   -7.9605   26.1987 H   0  0  0  0  0  0  0  0  0  0  0  0
    6.4781   -6.1784   28.5306 H   0  0  0  0  0  0  0  0  0  0  0  0
  1  2  1  0
  2  3  2  0
  3  4  1  0
  4  5  2  0
  5  6  1  0
  6  7  1  0
  7  8  1  0
  8  9  2  0
  8 10  1  0
 10 11  1  0
 11 12  1  0
 11 13  1  0
 13 14  2  0
 14 15  1  0
 15 16  2  0
 16 17  1  0
  7 18  2  0
 18 19  1  0
 19 20  2  0
 20  2  1  0
 19  5  1  0
 17 13  1  0
  1 21  1  0
  1 22  1  0
  1 23  1  0
  3 24  1  0
  4 25  1  0
  6 26  1  0
 10 27  1  0
 11 28  1  0
 12 29  1  0
 12 30  1  0
 12 31  1  0
 15 32  1  0
 16 33  1  0
 17 34  1  0
 18 35  1  0
 20 36  1  0
M  END
>  <Energy>  (1362) 
-18.570304369120809

>  <compound_id>  (1362) 
47237

>  <target_id>  (1362) 
1

>  <reference_id>  (1362) 
40

>  <inspiration_ids>  (1362) 
[40, 80]

>  <energy_score>  (1362) 
-14.940970380985846

>  <distance_score>  (1362) 
8.542795532236784

>  <path>  (1362) 
/opt/xchem-fragalysis-2/maxwin/BulkDock/SCRATCH/511023/C47237-P40/C47237-P40.minimised.mol

>  <scratch_subdir>  (1362) 
/opt/xchem-fragalysis-2/maxwin/BulkDock/SCRATCH/511023/C47237-P40

>  <fragmenstein_runtime>  (1362) 
8.794559001922607

>  <fragmenstein_outcome>  (1362) 
too moved

>  <fragmenstein_mode>  (1362) 
expansion

>  <fragmenstein_error>  (1362) 


$$$$
C47237-P80
     RDKit          3D

 36 38  0  0  0  0  0  0  0  0999 V2000
    0.5655   -3.4939   28.4747 C   0  0  0  0  0  0  0  0  0  0  0  0
    2.0297   -3.2473   28.6802 C   0  0  0  0  0  0  0  0  0  0  0  0
    2.6299   -3.5956   29.8921 C   0  0  0  0  0  0  0  0  0  0  0  0
    3.9872   -3.3231   30.1166 C   0  0  0  0  0  0  0  0  0  0  0  0
    4.7377   -2.6996   29.0944 C   0  0  0  0  0  0  0  0  0  0  0  0
    6.0696   -2.3142   29.0338 N   0  0  0  0  0  0  0  0  0  0  0  0
    6.4695   -1.6675   27.8350 C   0  0  0  0  0  0  0  0  0  0  0  0
    7.9179   -1.0409   27.7450 C   0  0  0  0  0  0  0  0  0  0  0  0
    8.2665   -0.6761   28.8117 O   0  0  0  0  0  0  0  0  0  0  0  0
    8.6783   -0.9974   26.3398 N   0  0  0  0  0  0  0  0  0  0  0  0
   10.1589   -0.5496   25.9856 C   0  0  0  0  0  0  0  0  0  0  0  0
   11.0729   -1.6454   26.5551 C   0  0  0  0  0  0  0  0  0  0  0  0
   10.7990   -0.0133   24.4935 C   0  0  0  0  0  0  0  0  0  0  0  0
   10.3230    0.8230   23.5573 N   0  0  0  0  0  0  0  0  0  0  0  0
   11.3869    1.2280   22.7687 C   0  0  0  0  0  0  0  0  0  0  0  0
   12.5298    0.5755   23.1315 C   0  0  0  0  0  0  0  0  0  0  0  0
   12.1299   -0.2800   24.1322 N   0  0  0  0  0  0  0  0  0  0  0  0
    5.2492   -1.6796   27.1270 C   0  0  0  0  0  0  0  0  0  0  0  0
    4.1808   -2.3349   27.8834 C   0  0  0  0  0  0  0  0  0  0  0  0
    2.8056   -2.6302   27.6737 C   0  0  0  0  0  0  0  0  0  0  0  0
    0.0983   -2.6339   27.9863 H   0  0  0  0  0  0  0  0  0  0  0  0
    0.0491   -3.6350   29.4305 H   0  0  0  0  0  0  0  0  0  0  0  0
    0.4131   -4.3931   27.8728 H   0  0  0  0  0  0  0  0  0  0  0  0
    2.0485   -4.0644   30.6829 H   0  0  0  0  0  0  0  0  0  0  0  0
    4.4489   -3.5779   31.0655 H   0  0  0  0  0  0  0  0  0  0  0  0
    6.7105   -2.3897   29.8088 H   0  0  0  0  0  0  0  0  0  0  0  0
    8.1243   -1.4687   25.6402 H   0  0  0  0  0  0  0  0  0  0  0  0
   10.2891    0.3391   26.6191 H   0  0  0  0  0  0  0  0  0  0  0  0
   12.1061   -1.2984   26.6544 H   0  0  0  0  0  0  0  0  0  0  0  0
   11.0674   -2.5296   25.9099 H   0  0  0  0  0  0  0  0  0  0  0  0
   10.7439   -1.9596   27.5516 H   0  0  0  0  0  0  0  0  0  0  0  0
   11.2851    2.0042   22.0257 H   0  0  0  0  0  0  0  0  0  0  0  0
   13.5459    0.6017   22.7678 H   0  0  0  0  0  0  0  0  0  0  0  0
   12.7379   -0.9323   24.6023 H   0  0  0  0  0  0  0  0  0  0  0  0
    5.1113   -1.2496   26.1425 H   0  0  0  0  0  0  0  0  0  0  0  0
    2.3573   -2.3236   26.7346 H   0  0  0  0  0  0  0  0  0  0  0  0
  1  2  1  0
  2  3  2  0
  3  4  1  0
  4  5  2  0
  5  6  1  0
  6  7  1  0
  7  8  1  0
  8  9  2  0
  8 10  1  0
 10 11  1  0
 11 12  1  0
 11 13  1  0
 13 14  2  0
 14 15  1  0
 15 16  2  0
 16 17  1  0
  7 18  2  0
 18 19  1  0
 19 20  2  0
 20  2  1  0
 19  5  1  0
 17 13  1  0
  1 21  1  0
  1 22  1  0
  1 23  1  0
  3 24  1  0
  4 25  1  0
  6 26  1  0
 10 27  1  0
 11 28  1  0
 12 29  1  0
 12 30  1  0
 12 31  1  0
 15 32  1  0
 16 33  1  0
 17 34  1  0
 18 35  1  0
 20 36  1  0
M  END
>  <Energy>  (1363) 
57.939488782901392

>  <compound_id>  (1363) 
47237

>  <target_id>  (1363) 
1

>  <reference_id>  (1363) 
80

>  <inspiration_ids>  (1363) 
[40, 80]

>  <energy_score>  (1363) 
58.725633091998816

>  <distance_score>  (1363) 
7.892958335246519

>  <path>  (1363) 
/opt/xchem-fragalysis-2/maxwin/BulkDock/SCRATCH/511023/C47237-P80/C47237-P80.minimised.mol

>  <scratch_subdir>  (1363) 
/opt/xchem-fragalysis-2/maxwin/BulkDock/SCRATCH/511023/C47237-P80

>  <fragmenstein_runtime>  (1363) 
11.876644372940063

>  <fragmenstein_outcome>  (1363) 
too moved

>  <fragmenstein_mode>  (1363) 
expansion

>  <fragmenstein_error>  (1363) 


$$$$
C47238-P40
     RDKit          3D

 45 47  0  0  0  0  0  0  0  0999 V2000
    0.0030   -4.4827   32.6087 C   0  0  0  0  0  0  0  0  0  0  0  0
    1.3494   -4.6919   31.9106 C   0  0  0  0  0  0  0  0  0  0  0  0
    2.4740   -4.1114   32.7708 C   0  0  0  0  0  0  0  0  0  0  0  0
    1.3185   -4.0534   30.5095 C   0  0  0  0  0  0  0  0  0  0  0  0
    2.4639   -4.4752   29.6136 C   0  0  0  0  0  0  0  0  0  0  0  0
    2.4917   -5.7683   29.0714 C   0  0  0  0  0  0  0  0  0  0  0  0
    3.5079   -6.1771   28.1963 C   0  0  0  0  0  0  0  0  0  0  0  0
    4.4672   -5.2358   27.7847 C   0  0  0  0  0  0  0  0  0  0  0  0
    5.4540   -5.2154   26.7376 C   0  0  0  0  0  0  0  0  0  0  0  0
    5.5057   -3.8639   26.3658 C   0  0  0  0  0  0  0  0  0  0  0  0
    4.7802   -3.3576   25.2009 C   0  0  0  0  0  0  0  0  0  0  0  0
    3.6101   -3.5605   25.3184 O   0  0  0  0  0  0  0  0  0  0  0  0
    5.5156   -2.6709   24.1656 N   0  0  0  0  0  0  0  0  0  0  0  0
    4.9800   -1.8137   22.8130 C   0  0  0  0  0  0  0  0  0  0  0  0
    4.8573   -0.5227   23.8515 C   0  0  0  0  0  0  0  0  0  0  0  0
    5.7277   -1.9449   20.9014 C   0  0  0  0  0  0  0  0  0  0  0  0
    6.8940   -0.9690   20.4601 N   0  0  0  0  0  0  0  0  0  0  0  0
    6.9811   -0.3882   19.0261 C   0  0  0  0  0  0  0  0  0  0  0  0
    6.0267   -1.2679   18.1496 C   0  0  0  0  0  0  0  0  0  0  0  0
    5.4512   -2.5337   19.4079 N   0  0  0  0  0  0  0  0  0  0  0  0
    5.3513   -3.2094   27.5946 N   0  0  0  0  0  0  0  0  0  0  0  0
    4.4094   -3.9484   28.3111 C   0  0  0  0  0  0  0  0  0  0  0  0
    3.4594   -3.5481   29.2612 C   0  0  0  0  0  0  0  0  0  0  0  0
    0.0025   -4.9456   33.6012 H   0  0  0  0  0  0  0  0  0  0  0  0
   -0.8086   -4.9367   32.0302 H   0  0  0  0  0  0  0  0  0  0  0  0
   -0.2216   -3.4176   32.7305 H   0  0  0  0  0  0  0  0  0  0  0  0
    1.5098   -5.7729   31.8212 H   0  0  0  0  0  0  0  0  0  0  0  0
    3.4545   -4.2876   32.3186 H   0  0  0  0  0  0  0  0  0  0  0  0
    2.4807   -4.5762   33.7626 H   0  0  0  0  0  0  0  0  0  0  0  0
    2.3533   -3.0311   32.9058 H   0  0  0  0  0  0  0  0  0  0  0  0
    1.2944   -2.9593   30.5981 H   0  0  0  0  0  0  0  0  0  0  0  0
    0.3859   -4.3256   29.9961 H   0  0  0  0  0  0  0  0  0  0  0  0
    1.6842   -6.4572   29.3020 H   0  0  0  0  0  0  0  0  0  0  0  0
    3.4921   -7.1566   27.7344 H   0  0  0  0  0  0  0  0  0  0  0  0
    5.5668   -6.0317   26.0331 H   0  0  0  0  0  0  0  0  0  0  0  0
    6.5024   -2.7613   24.3492 H   0  0  0  0  0  0  0  0  0  0  0  0
    3.9053   -2.0579   22.8712 H   0  0  0  0  0  0  0  0  0  0  0  0
    5.4995   -0.4701   24.7492 H   0  0  0  0  0  0  0  0  0  0  0  0
    3.9264   -0.6314   24.4349 H   0  0  0  0  0  0  0  0  0  0  0  0
    4.9081    0.4370   23.3776 H   0  0  0  0  0  0  0  0  0  0  0  0
    7.4708    0.5540   18.8266 H   0  0  0  0  0  0  0  0  0  0  0  0
    5.2342   -1.0777   17.4288 H   0  0  0  0  0  0  0  0  0  0  0  0
    6.0302   -3.3422   19.4011 H   0  0  0  0  0  0  0  0  0  0  0  0
    5.3627   -2.2040   27.6604 H   0  0  0  0  0  0  0  0  0  0  0  0
    3.4304   -2.5248   29.6227 H   0  0  0  0  0  0  0  0  0  0  0  0
  1  2  1  0
  2  3  1  0
  2  4  1  0
  4  5  1  0
  5  6  2  0
  6  7  1  0
  7  8  2  0
  8  9  1  0
  9 10  2  0
 10 11  1  0
 11 12  2  0
 11 13  1  0
 13 14  1  0
 14 15  1  0
 14 16  1  0
 16 17  2  0
 17 18  1  0
 18 19  2  0
 19 20  1  0
 10 21  1  0
 21 22  1  0
 22 23  2  0
 23  5  1  0
 22  8  1  0
 20 16  1  0
  1 24  1  0
  1 25  1  0
  1 26  1  0
  2 27  1  0
  3 28  1  0
  3 29  1  0
  3 30  1  0
  4 31  1  0
  4 32  1  0
  6 33  1  0
  7 34  1  0
  9 35  1  0
 13 36  1  0
 14 37  1  0
 15 38  1  0
 15 39  1  0
 15 40  1  0
 18 41  1  0
 19 42  1  0
 20 43  1  0
 21 44  1  0
 23 45  1  0
M  END
>  <Energy>  (1364) 
365.8513829488133

>  <compound_id>  (1364) 
47238

>  <target_id>  (1364) 
1

>  <reference_id>  (1364) 
40

>  <inspiration_ids>  (1364) 
[40, 80]

>  <energy_score>  (1364) 
351.9392857312055

>  <distance_score>  (1364) 
6.783478290523743

>  <path>  (1364) 
/opt/xchem-fragalysis-2/maxwin/BulkDock/SCRATCH/511023/C47238-P40/C47238-P40.minimised.mol

>  <scratch_subdir>  (1364) 
/opt/xchem-fragalysis-2/maxwin/BulkDock/SCRATCH/511023/C47238-P40

>  <fragmenstein_runtime>  (1364) 
20.158052921295166

>  <fragmenstein_outcome>  (1364) 
too moved

>  <fragmenstein_mode>  (1364) 
expansion

>  <fragmenstein_error>  (1364) 


$$$$
C47238-P80
     RDKit          3D

 45 47  0  0  0  0  0  0  0  0999 V2000
    6.5841   -5.6265   32.1956 C   0  0  0  0  0  0  0  0  0  0  0  0
    5.8274   -4.7866   33.2242 C   0  0  0  0  0  0  0  0  0  0  0  0
    4.5586   -5.4970   33.6948 C   0  0  0  0  0  0  0  0  0  0  0  0
    5.5567   -3.3477   32.7423 C   0  0  0  0  0  0  0  0  0  0  0  0
    4.9136   -3.1823   31.3807 C   0  0  0  0  0  0  0  0  0  0  0  0
    3.5345   -3.3523   31.2143 C   0  0  0  0  0  0  0  0  0  0  0  0
    2.9217   -3.1082   29.9832 C   0  0  0  0  0  0  0  0  0  0  0  0
    3.7095   -2.6727   28.9045 C   0  0  0  0  0  0  0  0  0  0  0  0
    3.4251   -2.3065   27.5763 C   0  0  0  0  0  0  0  0  0  0  0  0
    4.6139   -2.0057   26.9080 C   0  0  0  0  0  0  0  0  0  0  0  0
    4.6132   -1.5286   25.5240 C   0  0  0  0  0  0  0  0  0  0  0  0
    3.8151   -0.6267   25.3994 O   0  0  0  0  0  0  0  0  0  0  0  0
    5.4932   -2.2686   24.4440 N   0  0  0  0  0  0  0  0  0  0  0  0
    5.5235   -2.1137   22.6376 C   0  0  0  0  0  0  0  0  0  0  0  0
    4.6536   -1.1884   23.0031 C   0  0  0  0  0  0  0  0  0  0  0  0
    6.5088   -1.4012   21.1388 C   0  0  0  0  0  0  0  0  0  0  0  0
    7.6981   -1.5436   20.6787 N   0  0  0  0  0  0  0  0  0  0  0  0
    7.9946   -0.6729   19.7561 C   0  0  0  0  0  0  0  0  0  0  0  0
    6.9570   -0.0325   19.4622 C   0  0  0  0  0  0  0  0  0  0  0  0
    6.5699   -0.1639   20.7834 N   0  0  0  0  0  0  0  0  0  0  0  0
    5.6100   -2.1235   27.8414 N   0  0  0  0  0  0  0  0  0  0  0  0
    5.0869   -2.5382   29.0588 C   0  0  0  0  0  0  0  0  0  0  0  0
    5.7125   -2.7940   30.2847 C   0  0  0  0  0  0  0  0  0  0  0  0
    7.5147   -5.1310   31.8994 H   0  0  0  0  0  0  0  0  0  0  0  0
    6.8470   -6.6038   32.6147 H   0  0  0  0  0  0  0  0  0  0  0  0
    5.9892   -5.8021   31.2939 H   0  0  0  0  0  0  0  0  0  0  0  0
    6.4749   -4.7009   34.1079 H   0  0  0  0  0  0  0  0  0  0  0  0
    4.7988   -6.4803   34.1135 H   0  0  0  0  0  0  0  0  0  0  0  0
    3.8474   -5.6478   32.8802 H   0  0  0  0  0  0  0  0  0  0  0  0
    4.0571   -4.9176   34.4772 H   0  0  0  0  0  0  0  0  0  0  0  0
    4.9413   -2.8193   33.4830 H   0  0  0  0  0  0  0  0  0  0  0  0
    6.5131   -2.8064   32.7394 H   0  0  0  0  0  0  0  0  0  0  0  0
    2.9092   -3.6382   32.0575 H   0  0  0  0  0  0  0  0  0  0  0  0
    1.8472   -3.2182   29.8720 H   0  0  0  0  0  0  0  0  0  0  0  0
    2.4476   -2.2633   27.1096 H   0  0  0  0  0  0  0  0  0  0  0  0
    5.9900   -3.0300   24.8812 H   0  0  0  0  0  0  0  0  0  0  0  0
    5.3082   -2.9279   21.9951 H   0  0  0  0  0  0  0  0  0  0  0  0
    4.9756   -0.4240   23.7203 H   0  0  0  0  0  0  0  0  0  0  0  0
    4.5478   -0.6047   22.1047 H   0  0  0  0  0  0  0  0  0  0  0  0
    3.8116   -1.8413   23.3794 H   0  0  0  0  0  0  0  0  0  0  0  0
    8.5141   -0.8114   18.9073 H   0  0  0  0  0  0  0  0  0  0  0  0
    6.4555   -0.4685   18.6237 H   0  0  0  0  0  0  0  0  0  0  0  0
    5.6857    0.1434   21.1426 H   0  0  0  0  0  0  0  0  0  0  0  0
    6.5883   -1.9713   27.6458 H   0  0  0  0  0  0  0  0  0  0  0  0
    6.7840   -2.6558   30.3946 H   0  0  0  0  0  0  0  0  0  0  0  0
  1  2  1  0
  2  3  1  0
  2  4  1  0
  4  5  1  0
  5  6  2  0
  6  7  1  0
  7  8  2  0
  8  9  1  0
  9 10  2  0
 10 11  1  0
 11 12  2  0
 11 13  1  0
 13 14  1  0
 14 15  1  0
 14 16  1  0
 16 17  2  0
 17 18  1  0
 18 19  2  0
 19 20  1  0
 10 21  1  0
 21 22  1  0
 22 23  2  0
 23  5  1  0
 22  8  1  0
 20 16  1  0
  1 24  1  0
  1 25  1  0
  1 26  1  0
  2 27  1  0
  3 28  1  0
  3 29  1  0
  3 30  1  0
  4 31  1  0
  4 32  1  0
  6 33  1  0
  7 34  1  0
  9 35  1  0
 13 36  1  0
 14 37  1  0
 15 38  1  0
 15 39  1  0
 15 40  1  0
 18 41  1  0
 19 42  1  0
 20 43  1  0
 21 44  1  0
 23 45  1  0
M  END
>  <Energy>  (1365) 
348.85355267238668

>  <compound_id>  (1365) 
47238

>  <target_id>  (1365) 
1

>  <reference_id>  (1365) 
80

>  <inspiration_ids>  (1365) 
[40, 80]

>  <energy_score>  (1365) 
334.9414554547741

>  <distance_score>  (1365) 
7.145607416674889

>  <path>  (1365) 
/opt/xchem-fragalysis-2/maxwin/BulkDock/SCRATCH/511023/C47238-P80/C47238-P80.minimised.mol

>  <scratch_subdir>  (1365) 
/opt/xchem-fragalysis-2/maxwin/BulkDock/SCRATCH/511023/C47238-P80

>  <fragmenstein_runtime>  (1365) 
17.459330081939697

>  <fragmenstein_outcome>  (1365) 
too moved

>  <fragmenstein_mode>  (1365) 
expansion

>  <fragmenstein_error>  (1365) 


$$$$
C47239-P40
     RDKit          3D

 33 35  0  0  0  0  0  0  0  0999 V2000
    6.5693  -10.4813   22.6399 C   0  0  0  0  0  0  0  0  0  0  0  0
    5.7623   -9.3157   22.0517 C   0  0  0  0  0  0  0  0  0  0  0  0
    5.2485   -8.4371   23.1712 N   0  0  0  0  0  0  0  0  0  0  0  0
    5.9490   -7.9478   24.4811 C   0  0  0  0  0  0  0  0  0  0  0  0
    7.0534   -8.0889   24.8494 O   0  0  0  0  0  0  0  0  0  0  0  0
    5.0006   -7.2617   25.4808 C   0  0  0  0  0  0  0  0  0  0  0  0
    3.6192   -7.0595   25.5960 C   0  0  0  0  0  0  0  0  0  0  0  0
    3.3209   -6.3155   26.7932 C   0  0  0  0  0  0  0  0  0  0  0  0
    2.1911   -5.6999   27.3571 C   0  0  0  0  0  0  0  0  0  0  0  0
    2.1984   -5.0930   28.6094 C   0  0  0  0  0  0  0  0  0  0  0  0
    3.3748   -5.0553   29.3185 C   0  0  0  0  0  0  0  0  0  0  0  0
    3.4035   -4.4812   30.5271 F   0  0  0  0  0  0  0  0  0  0  0  0
    4.5517   -5.5733   28.7713 C   0  0  0  0  0  0  0  0  0  0  0  0
    4.5000   -6.1857   27.4973 C   0  0  0  0  0  0  0  0  0  0  0  0
    5.4875   -6.7060   26.6775 N   0  0  0  0  0  0  0  0  0  0  0  0
    6.4543   -8.8134   20.6759 C   0  0  0  0  0  0  0  0  0  0  0  0
    7.7496   -8.9519   20.3656 N   0  0  0  0  0  0  0  0  0  0  0  0
    7.8111   -9.4918   19.1283 C   0  0  0  0  0  0  0  0  0  0  0  0
    6.5604   -9.4718   18.5824 C   0  0  0  0  0  0  0  0  0  0  0  0
    5.7938   -8.7616   19.4635 N   0  0  0  0  0  0  0  0  0  0  0  0
    6.0160  -10.9661   23.4521 H   0  0  0  0  0  0  0  0  0  0  0  0
    6.7808  -11.2406   21.8791 H   0  0  0  0  0  0  0  0  0  0  0  0
    7.5264  -10.1456   23.0499 H   0  0  0  0  0  0  0  0  0  0  0  0
    4.8276   -9.7702   21.6901 H   0  0  0  0  0  0  0  0  0  0  0  0
    4.3120   -8.0720   23.1341 H   0  0  0  0  0  0  0  0  0  0  0  0
    2.9033   -7.3843   24.8552 H   0  0  0  0  0  0  0  0  0  0  0  0
    1.3053   -5.6099   26.7774 H   0  0  0  0  0  0  0  0  0  0  0  0
    1.3094   -4.6153   29.0088 H   0  0  0  0  0  0  0  0  0  0  0  0
    5.4896   -5.4824   29.3109 H   0  0  0  0  0  0  0  0  0  0  0  0
    6.4753   -6.7106   26.8974 H   0  0  0  0  0  0  0  0  0  0  0  0
    8.7170   -9.9185   18.7228 H   0  0  0  0  0  0  0  0  0  0  0  0
    6.1527   -9.8687   17.6605 H   0  0  0  0  0  0  0  0  0  0  0  0
    4.7955   -8.6994   19.3586 H   0  0  0  0  0  0  0  0  0  0  0  0
  1  2  1  0
  2  3  1  0
  3  4  1  0
  4  5  2  0
  4  6  1  0
  6  7  2  0
  7  8  1  0
  8  9  2  0
  9 10  1  0
 10 11  2  0
 11 12  1  0
 11 13  1  0
 13 14  2  0
 14 15  1  0
  2 16  1  0
 16 17  2  0
 17 18  1  0
 18 19  2  0
 19 20  1  0
 15  6  1  0
 20 16  1  0
 14  8  1  0
  1 21  1  0
  1 22  1  0
  1 23  1  0
  2 24  1  0
  3 25  1  0
  7 26  1  0
  9 27  1  0
 10 28  1  0
 13 29  1  0
 15 30  1  0
 18 31  1  0
 19 32  1  0
 20 33  1  0
M  END
>  <Energy>  (1366) 
35.16827968629979

>  <compound_id>  (1366) 
47239

>  <target_id>  (1366) 
1

>  <reference_id>  (1366) 
40

>  <inspiration_ids>  (1366) 
[40, 80]

>  <energy_score>  (1366) 
48.89176753495798

>  <distance_score>  (1366) 
8.087164658924676

>  <path>  (1366) 
/opt/xchem-fragalysis-2/maxwin/BulkDock/SCRATCH/511023/C47239-P40/C47239-P40.minimised.mol

>  <scratch_subdir>  (1366) 
/opt/xchem-fragalysis-2/maxwin/BulkDock/SCRATCH/511023/C47239-P40

>  <fragmenstein_runtime>  (1366) 
8.207726240158081

>  <fragmenstein_outcome>  (1366) 
too moved

>  <fragmenstein_mode>  (1366) 
expansion

>  <fragmenstein_error>  (1366) 


$$$$
C47239-P80
     RDKit          3D

 33 35  0  0  0  0  0  0  0  0999 V2000
    5.5264   -1.0896   29.4591 C   0  0  0  0  0  0  0  0  0  0  0  0
    4.1998   -0.8479   28.7542 C   0  0  0  0  0  0  0  0  0  0  0  0
    3.1564   -1.6726   29.2954 N   0  0  0  0  0  0  0  0  0  0  0  0
    2.5097   -1.6491   30.5504 C   0  0  0  0  0  0  0  0  0  0  0  0
    2.6065   -0.8866   31.4640 O   0  0  0  0  0  0  0  0  0  0  0  0
    1.6149   -2.8012   30.6933 C   0  0  0  0  0  0  0  0  0  0  0  0
    1.2126   -3.8057   29.8225 C   0  0  0  0  0  0  0  0  0  0  0  0
    0.4747   -4.7693   30.5550 C   0  0  0  0  0  0  0  0  0  0  0  0
   -0.0715   -6.0237   30.2376 C   0  0  0  0  0  0  0  0  0  0  0  0
   -0.6877   -6.7634   31.2490 C   0  0  0  0  0  0  0  0  0  0  0  0
   -0.8176   -6.2395   32.5283 C   0  0  0  0  0  0  0  0  0  0  0  0
   -1.4380   -6.9709   33.4669 F   0  0  0  0  0  0  0  0  0  0  0  0
   -0.3233   -4.9816   32.8599 C   0  0  0  0  0  0  0  0  0  0  0  0
    0.3459   -4.2819   31.8521 C   0  0  0  0  0  0  0  0  0  0  0  0
    0.9971   -3.0748   31.8937 N   0  0  0  0  0  0  0  0  0  0  0  0
    4.2506   -1.2612   27.3148 C   0  0  0  0  0  0  0  0  0  0  0  0
    3.6258   -2.3120   26.8097 N   0  0  0  0  0  0  0  0  0  0  0  0
    3.8483   -2.2533   25.4707 C   0  0  0  0  0  0  0  0  0  0  0  0
    4.6360   -1.1916   25.1639 C   0  0  0  0  0  0  0  0  0  0  0  0
    4.8851   -0.5558   26.3359 N   0  0  0  0  0  0  0  0  0  0  0  0
    5.4565   -0.8338   30.5218 H   0  0  0  0  0  0  0  0  0  0  0  0
    5.8317   -2.1408   29.3929 H   0  0  0  0  0  0  0  0  0  0  0  0
    6.3238   -0.4824   29.0172 H   0  0  0  0  0  0  0  0  0  0  0  0
    3.8965    0.1990   28.8576 H   0  0  0  0  0  0  0  0  0  0  0  0
    2.7665   -2.4213   28.7378 H   0  0  0  0  0  0  0  0  0  0  0  0
    1.4692   -3.8928   28.7745 H   0  0  0  0  0  0  0  0  0  0  0  0
    0.0300   -6.4369   29.2398 H   0  0  0  0  0  0  0  0  0  0  0  0
   -1.0402   -7.7659   31.0547 H   0  0  0  0  0  0  0  0  0  0  0  0
   -0.4287   -4.5931   33.8663 H   0  0  0  0  0  0  0  0  0  0  0  0
    1.1018   -2.4926   32.7147 H   0  0  0  0  0  0  0  0  0  0  0  0
    3.4367   -2.9681   24.7843 H   0  0  0  0  0  0  0  0  0  0  0  0
    4.9742   -0.8480   24.2091 H   0  0  0  0  0  0  0  0  0  0  0  0
    5.4113    0.2949   26.4619 H   0  0  0  0  0  0  0  0  0  0  0  0
  1  2  1  0
  2  3  1  0
  3  4  1  0
  4  5  2  0
  4  6  1  0
  6  7  2  0
  7  8  1  0
  8  9  2  0
  9 10  1  0
 10 11  2  0
 11 12  1  0
 11 13  1  0
 13 14  2  0
 14 15  1  0
  2 16  1  0
 16 17  2  0
 17 18  1  0
 18 19  2  0
 19 20  1  0
 15  6  1  0
 20 16  1  0
 14  8  1  0
  1 21  1  0
  1 22  1  0
  1 23  1  0
  2 24  1  0
  3 25  1  0
  7 26  1  0
  9 27  1  0
 10 28  1  0
 13 29  1  0
 15 30  1  0
 18 31  1  0
 19 32  1  0
 20 33  1  0
M  END
>  <Energy>  (1367) 
-23.497645351348023

>  <compound_id>  (1367) 
47239

>  <target_id>  (1367) 
1

>  <reference_id>  (1367) 
80

>  <inspiration_ids>  (1367) 
[40, 80]

>  <energy_score>  (1367) 
-17.7251508518313

>  <distance_score>  (1367) 
8.445045047921898

>  <path>  (1367) 
/opt/xchem-fragalysis-2/maxwin/BulkDock/SCRATCH/511023/C47239-P80/C47239-P80.minimised.mol

>  <scratch_subdir>  (1367) 
/opt/xchem-fragalysis-2/maxwin/BulkDock/SCRATCH/511023/C47239-P80

>  <fragmenstein_runtime>  (1367) 
9.316905975341797

>  <fragmenstein_outcome>  (1367) 
too moved

>  <fragmenstein_mode>  (1367) 
expansion

>  <fragmenstein_error>  (1367) 


$$$$
C47240-P40
     RDKit          3D

 37 39  0  0  0  0  0  0  0  0999 V2000
    5.0154    0.2618   23.2790 C   0  0  0  0  0  0  0  0  0  0  0  0
    5.1992   -0.7835   21.7679 C   0  0  0  0  0  0  0  0  0  0  0  0
    4.5956   -1.8332   23.1927 N   0  0  0  0  0  0  0  0  0  0  0  0
    5.1572   -2.0098   24.6811 C   0  0  0  0  0  0  0  0  0  0  0  0
    6.1559   -1.5631   25.2036 O   0  0  0  0  0  0  0  0  0  0  0  0
    4.3617   -2.8334   25.6154 C   0  0  0  0  0  0  0  0  0  0  0  0
    4.3120   -4.2148   25.7609 C   0  0  0  0  0  0  0  0  0  0  0  0
    3.4546   -4.5488   26.8431 C   0  0  0  0  0  0  0  0  0  0  0  0
    2.9684   -5.7626   27.3671 C   0  0  0  0  0  0  0  0  0  0  0  0
    2.0905   -5.7346   28.4560 C   0  0  0  0  0  0  0  0  0  0  0  0
    1.7186   -4.5266   29.0385 C   0  0  0  0  0  0  0  0  0  0  0  0
    2.2189   -3.3143   28.5549 C   0  0  0  0  0  0  0  0  0  0  0  0
    3.0892   -3.3507   27.4513 C   0  0  0  0  0  0  0  0  0  0  0  0
    3.7667   -2.3411   26.7786 N   0  0  0  0  0  0  0  0  0  0  0  0
    3.7743   -0.9392   27.1929 C   0  0  0  0  0  0  0  0  0  0  0  0
    4.4842   -0.7227   28.4581 C   0  0  0  0  0  0  0  0  0  0  0  0
    4.9919   -0.5193   29.4832 N   0  0  0  0  0  0  0  0  0  0  0  0
    6.7317   -0.5085   20.3596 C   0  0  0  0  0  0  0  0  0  0  0  0
    8.0523   -0.5332   20.1267 N   0  0  0  0  0  0  0  0  0  0  0  0
    8.4517    0.7154   19.6366 C   0  0  0  0  0  0  0  0  0  0  0  0
    7.8865    0.7918   18.4593 C   0  0  0  0  0  0  0  0  0  0  0  0
    6.7482    0.1899   18.9284 N   0  0  0  0  0  0  0  0  0  0  0  0
    4.6571    1.2519   22.9167 H   0  0  0  0  0  0  0  0  0  0  0  0
    5.7166    0.2790   24.1137 H   0  0  0  0  0  0  0  0  0  0  0  0
    4.2701    0.0305   24.0877 H   0  0  0  0  0  0  0  0  0  0  0  0
    5.3791   -1.8451   21.3300 H   0  0  0  0  0  0  0  0  0  0  0  0
    3.6871   -2.2736   23.1183 H   0  0  0  0  0  0  0  0  0  0  0  0
    4.8454   -4.9211   25.1367 H   0  0  0  0  0  0  0  0  0  0  0  0
    3.2681   -6.7045   26.9164 H   0  0  0  0  0  0  0  0  0  0  0  0
    1.6936   -6.6614   28.8542 H   0  0  0  0  0  0  0  0  0  0  0  0
    1.0400   -4.5172   29.8886 H   0  0  0  0  0  0  0  0  0  0  0  0
    1.9339   -2.3799   29.0297 H   0  0  0  0  0  0  0  0  0  0  0  0
    4.2122   -0.3289   26.4010 H   0  0  0  0  0  0  0  0  0  0  0  0
    2.7249   -0.6354   27.2813 H   0  0  0  0  0  0  0  0  0  0  0  0
    9.0555    1.4220   20.1856 H   0  0  0  0  0  0  0  0  0  0  0  0
    7.9655    1.4186   17.5846 H   0  0  0  0  0  0  0  0  0  0  0  0
    5.9709   -0.0591   18.3582 H   0  0  0  0  0  0  0  0  0  0  0  0
  1  2  1  0
  2  3  1  0
  3  4  1  0
  4  5  2  0
  4  6  1  0
  6  7  2  0
  7  8  1  0
  8  9  2  0
  9 10  1  0
 10 11  2  0
 11 12  1  0
 12 13  2  0
 13 14  1  0
 14 15  1  0
 15 16  1  0
 16 17  3  0
  2 18  1  0
 18 19  2  0
 19 20  1  0
 20 21  2  0
 21 22  1  0
 14  6  1  0
 22 18  1  0
 13  8  1  0
  1 23  1  0
  1 24  1  0
  1 25  1  0
  2 26  1  0
  3 27  1  0
  7 28  1  0
  9 29  1  0
 10 30  1  0
 11 31  1  0
 12 32  1  0
 15 33  1  0
 15 34  1  0
 20 35  1  0
 21 36  1  0
 22 37  1  0
M  END
>  <Energy>  (1368) 
426.72256286592295

>  <compound_id>  (1368) 
47240

>  <target_id>  (1368) 
1

>  <reference_id>  (1368) 
40

>  <inspiration_ids>  (1368) 
[40, 80]

>  <energy_score>  (1368) 
424.4128572465737

>  <distance_score>  (1368) 
6.806583876679637

>  <path>  (1368) 
/opt/xchem-fragalysis-2/maxwin/BulkDock/SCRATCH/511023/C47240-P40/C47240-P40.minimised.mol

>  <scratch_subdir>  (1368) 
/opt/xchem-fragalysis-2/maxwin/BulkDock/SCRATCH/511023/C47240-P40

>  <fragmenstein_runtime>  (1368) 
9.47366189956665

>  <fragmenstein_outcome>  (1368) 
too moved

>  <fragmenstein_mode>  (1368) 
expansion

>  <fragmenstein_error>  (1368) 


$$$$
C47240-P80
     RDKit          3D

 37 39  0  0  0  0  0  0  0  0999 V2000
    6.0932   -2.9025   20.8998 C   0  0  0  0  0  0  0  0  0  0  0  0
    7.7863   -3.6917   21.3980 C   0  0  0  0  0  0  0  0  0  0  0  0
    6.9958   -3.6058   23.2583 N   0  0  0  0  0  0  0  0  0  0  0  0
    5.6843   -2.3980   24.0150 C   0  0  0  0  0  0  0  0  0  0  0  0
    5.1215   -1.5985   23.3315 O   0  0  0  0  0  0  0  0  0  0  0  0
    5.2870   -2.1595   25.5395 C   0  0  0  0  0  0  0  0  0  0  0  0
    6.1465   -1.7433   26.6245 C   0  0  0  0  0  0  0  0  0  0  0  0
    5.4823   -2.0159   27.8740 C   0  0  0  0  0  0  0  0  0  0  0  0
    5.8727   -2.1268   29.2195 C   0  0  0  0  0  0  0  0  0  0  0  0
    4.9153   -2.4717   30.1877 C   0  0  0  0  0  0  0  0  0  0  0  0
    3.5809   -2.6760   29.8430 C   0  0  0  0  0  0  0  0  0  0  0  0
    3.1690   -2.5506   28.5167 C   0  0  0  0  0  0  0  0  0  0  0  0
    4.1571   -2.2591   27.5577 C   0  0  0  0  0  0  0  0  0  0  0  0
    4.0736   -1.9861   26.1973 N   0  0  0  0  0  0  0  0  0  0  0  0
    3.1031   -1.0184   25.7884 C   0  0  0  0  0  0  0  0  0  0  0  0
    3.5060    0.3640   26.0912 C   0  0  0  0  0  0  0  0  0  0  0  0
    3.7468    1.4722   26.3561 N   0  0  0  0  0  0  0  0  0  0  0  0
    9.3599   -3.0863   20.1726 C   0  0  0  0  0  0  0  0  0  0  0  0
   11.2333   -2.6897   19.9040 N   0  0  0  0  0  0  0  0  0  0  0  0
   11.5084   -2.5150   17.8691 C   0  0  0  0  0  0  0  0  0  0  0  0
    9.8159   -2.0365   17.0503 C   0  0  0  0  0  0  0  0  0  0  0  0
    8.6100   -1.7857   18.8080 N   0  0  0  0  0  0  0  0  0  0  0  0
    5.5603   -3.4117   20.0879 H   0  0  0  0  0  0  0  0  0  0  0  0
    6.4894   -1.8745   20.8238 H   0  0  0  0  0  0  0  0  0  0  0  0
    5.4333   -2.8498   21.7082 H   0  0  0  0  0  0  0  0  0  0  0  0
    7.8956   -4.7121   21.0717 H   0  0  0  0  0  0  0  0  0  0  0  0
    7.2935   -4.2495   23.9622 H   0  0  0  0  0  0  0  0  0  0  0  0
    7.2122   -1.5880   26.5145 H   0  0  0  0  0  0  0  0  0  0  0  0
    6.9069   -1.9594   29.5038 H   0  0  0  0  0  0  0  0  0  0  0  0
    5.2212   -2.5590   31.2277 H   0  0  0  0  0  0  0  0  0  0  0  0
    2.8534   -2.9186   30.6136 H   0  0  0  0  0  0  0  0  0  0  0  0
    2.1306   -2.6931   28.2355 H   0  0  0  0  0  0  0  0  0  0  0  0
    2.9441   -1.2372   24.7550 H   0  0  0  0  0  0  0  0  0  0  0  0
    2.1934   -1.2345   26.3546 H   0  0  0  0  0  0  0  0  0  0  0  0
   12.5192   -2.2537   17.5589 H   0  0  0  0  0  0  0  0  0  0  0  0
    9.6013   -1.1934   16.3566 H   0  0  0  0  0  0  0  0  0  0  0  0
    8.6065   -0.8539   19.1856 H   0  0  0  0  0  0  0  0  0  0  0  0
  1  2  1  0
  2  3  1  0
  3  4  1  0
  4  5  2  0
  4  6  1  0
  6  7  2  0
  7  8  1  0
  8  9  2  0
  9 10  1  0
 10 11  2  0
 11 12  1  0
 12 13  2  0
 13 14  1  0
 14 15  1  0
 15 16  1  0
 16 17  3  0
  2 18  1  0
 18 19  2  0
 19 20  1  0
 20 21  2  0
 21 22  1  0
 14  6  1  0
 22 18  1  0
 13  8  1  0
  1 23  1  0
  1 24  1  0
  1 25  1  0
  2 26  1  0
  3 27  1  0
  7 28  1  0
  9 29  1  0
 10 30  1  0
 11 31  1  0
 12 32  1  0
 15 33  1  0
 15 34  1  0
 20 35  1  0
 21 36  1  0
 22 37  1  0
M  END
>  <Energy>  (1369) 
1121.1993302573355

>  <compound_id>  (1369) 
47240

>  <target_id>  (1369) 
1

>  <reference_id>  (1369) 
80

>  <inspiration_ids>  (1369) 
[40, 80]

>  <energy_score>  (1369) 
1118.8896246379982

>  <distance_score>  (1369) 
7.043232805197405

>  <path>  (1369) 
/opt/xchem-fragalysis-2/maxwin/BulkDock/SCRATCH/511023/C47240-P80/C47240-P80.minimised.mol

>  <scratch_subdir>  (1369) 
/opt/xchem-fragalysis-2/maxwin/BulkDock/SCRATCH/511023/C47240-P80

>  <fragmenstein_runtime>  (1369) 
15.239487409591675

>  <fragmenstein_outcome>  (1369) 
too moved

>  <fragmenstein_mode>  (1369) 
expansion

>  <fragmenstein_error>  (1369) 


$$$$
C47241-P40
     RDKit          3D

 37 39  0  0  0  0  0  0  0  0999 V2000
    0.9070   -4.9522   29.8027 C   0  0  0  0  0  0  0  0  0  0  0  0
    1.6368   -5.8694   28.9924 O   0  0  0  0  0  0  0  0  0  0  0  0
    2.6241   -5.3302   28.2075 C   0  0  0  0  0  0  0  0  0  0  0  0
    3.0394   -3.9981   28.2078 C   0  0  0  0  0  0  0  0  0  0  0  0
    4.0592   -3.5501   27.3478 C   0  0  0  0  0  0  0  0  0  0  0  0
    4.6355   -4.4782   26.4702 C   0  0  0  0  0  0  0  0  0  0  0  0
    5.6257   -4.3402   25.5103 N   0  0  0  0  0  0  0  0  0  0  0  0
    5.7532   -5.4942   24.7631 C   0  0  0  0  0  0  0  0  0  0  0  0
    6.4773   -5.7440   23.4721 C   0  0  0  0  0  0  0  0  0  0  0  0
    6.6199   -6.8912   23.2338 O   0  0  0  0  0  0  0  0  0  0  0  0
    6.9405   -4.5435   22.7327 N   0  0  0  0  0  0  0  0  0  0  0  0
    7.8503   -4.3585   21.0235 C   0  0  0  0  0  0  0  0  0  0  0  0
    9.8417   -5.0174   20.7022 C   0  0  0  0  0  0  0  0  0  0  0  0
   11.3854   -4.5970   21.3444 C   0  0  0  0  0  0  0  0  0  0  0  0
   12.4737   -5.1970   20.8802 N   0  0  0  0  0  0  0  0  0  0  0  0
   13.5398   -4.5240   21.3966 C   0  0  0  0  0  0  0  0  0  0  0  0
   13.1110   -3.5515   22.2600 C   0  0  0  0  0  0  0  0  0  0  0  0
   11.7438   -3.6416   22.2590 N   0  0  0  0  0  0  0  0  0  0  0  0
    4.9877   -6.4473   25.4381 C   0  0  0  0  0  0  0  0  0  0  0  0
    4.2406   -5.8115   26.4569 C   0  0  0  0  0  0  0  0  0  0  0  0
    3.2381   -6.2430   27.3446 C   0  0  0  0  0  0  0  0  0  0  0  0
    0.1279   -5.5174   30.3234 H   0  0  0  0  0  0  0  0  0  0  0  0
    0.4121   -4.1896   29.1920 H   0  0  0  0  0  0  0  0  0  0  0  0
    1.5529   -4.4992   30.5618 H   0  0  0  0  0  0  0  0  0  0  0  0
    2.5936   -3.2615   28.8699 H   0  0  0  0  0  0  0  0  0  0  0  0
    4.3755   -2.5112   27.3564 H   0  0  0  0  0  0  0  0  0  0  0  0
    6.1560   -3.4973   25.3250 H   0  0  0  0  0  0  0  0  0  0  0  0
    6.5685   -3.7142   23.1784 H   0  0  0  0  0  0  0  0  0  0  0  0
    7.1918   -4.6098   20.1516 H   0  0  0  0  0  0  0  0  0  0  0  0
    7.7346   -3.3058   21.1465 H   0  0  0  0  0  0  0  0  0  0  0  0
    9.9394   -5.3531   19.6644 H   0  0  0  0  0  0  0  0  0  0  0  0
   10.1978   -6.0434   20.9852 H   0  0  0  0  0  0  0  0  0  0  0  0
   14.5547   -4.7844   21.1270 H   0  0  0  0  0  0  0  0  0  0  0  0
   13.6331   -2.8236   22.8637 H   0  0  0  0  0  0  0  0  0  0  0  0
   11.1267   -3.0489   22.7955 H   0  0  0  0  0  0  0  0  0  0  0  0
    4.9014   -7.4805   25.1154 H   0  0  0  0  0  0  0  0  0  0  0  0
    2.9351   -7.2823   27.3275 H   0  0  0  0  0  0  0  0  0  0  0  0
  1  2  1  0
  2  3  1  0
  3  4  2  0
  4  5  1  0
  5  6  2  0
  6  7  1  0
  7  8  1  0
  8  9  1  0
  9 10  2  0
  9 11  1  0
 11 12  1  0
 12 13  1  0
 13 14  1  0
 14 15  2  0
 15 16  1  0
 16 17  2  0
 17 18  1  0
  8 19  2  0
 19 20  1  0
 20 21  2  0
 21  3  1  0
 20  6  1  0
 18 14  1  0
  1 22  1  0
  1 23  1  0
  1 24  1  0
  4 25  1  0
  5 26  1  0
  7 27  1  0
 11 28  1  0
 12 29  1  0
 12 30  1  0
 13 31  1  0
 13 32  1  0
 16 33  1  0
 17 34  1  0
 18 35  1  0
 19 36  1  0
 21 37  1  0
M  END
>  <Energy>  (1370) 
216.45239913243356

>  <compound_id>  (1370) 
47241

>  <target_id>  (1370) 
1

>  <reference_id>  (1370) 
40

>  <inspiration_ids>  (1370) 
[40, 80]

>  <energy_score>  (1370) 
203.90964908311514

>  <distance_score>  (1370) 
7.293016161550071

>  <path>  (1370) 
/opt/xchem-fragalysis-2/maxwin/BulkDock/SCRATCH/511023/C47241-P40/C47241-P40.minimised.mol

>  <scratch_subdir>  (1370) 
/opt/xchem-fragalysis-2/maxwin/BulkDock/SCRATCH/511023/C47241-P40

>  <fragmenstein_runtime>  (1370) 
9.982031345367432

>  <fragmenstein_outcome>  (1370) 
too moved

>  <fragmenstein_mode>  (1370) 
expansion

>  <fragmenstein_error>  (1370) 


$$$$
C47241-P80
     RDKit          3D

 37 39  0  0  0  0  0  0  0  0999 V2000
    1.9842   -3.2682   31.2457 C   0  0  0  0  0  0  0  0  0  0  0  0
    2.3556   -2.5504   30.0755 O   0  0  0  0  0  0  0  0  0  0  0  0
    3.6845   -2.5463   29.7449 C   0  0  0  0  0  0  0  0  0  0  0  0
    4.7184   -3.0638   30.5252 C   0  0  0  0  0  0  0  0  0  0  0  0
    6.0506   -3.0436   30.0766 C   0  0  0  0  0  0  0  0  0  0  0  0
    6.3116   -2.4988   28.8122 C   0  0  0  0  0  0  0  0  0  0  0  0
    7.4811   -2.4366   28.0659 N   0  0  0  0  0  0  0  0  0  0  0  0
    7.1918   -2.1251   26.7452 C   0  0  0  0  0  0  0  0  0  0  0  0
    8.0305   -2.6306   25.5769 C   0  0  0  0  0  0  0  0  0  0  0  0
    9.1972   -2.2482   25.5586 O   0  0  0  0  0  0  0  0  0  0  0  0
    7.1477   -3.5965   24.4301 N   0  0  0  0  0  0  0  0  0  0  0  0
    7.5922   -4.2125   22.8732 C   0  0  0  0  0  0  0  0  0  0  0  0
    8.5780   -3.5018   21.2187 C   0  0  0  0  0  0  0  0  0  0  0  0
   10.8450   -3.4177   21.3646 C   0  0  0  0  0  0  0  0  0  0  0  0
   11.7063   -4.4150   20.8525 N   0  0  0  0  0  0  0  0  0  0  0  0
   12.9993   -4.2982   21.2629 C   0  0  0  0  0  0  0  0  0  0  0  0
   13.0268   -3.6462   22.4463 C   0  0  0  0  0  0  0  0  0  0  0  0
   11.7135   -3.3255   22.7054 N   0  0  0  0  0  0  0  0  0  0  0  0
    5.9064   -1.5644   26.7921 C   0  0  0  0  0  0  0  0  0  0  0  0
    5.3053   -1.9381   28.0332 C   0  0  0  0  0  0  0  0  0  0  0  0
    3.9760   -1.9595   28.5069 C   0  0  0  0  0  0  0  0  0  0  0  0
    2.3981   -2.7969   32.1430 H   0  0  0  0  0  0  0  0  0  0  0  0
    2.2812   -4.3204   31.1773 H   0  0  0  0  0  0  0  0  0  0  0  0
    0.8933   -3.2354   31.3257 H   0  0  0  0  0  0  0  0  0  0  0  0
    4.5261   -3.4982   31.5009 H   0  0  0  0  0  0  0  0  0  0  0  0
    6.8461   -3.4643   30.6826 H   0  0  0  0  0  0  0  0  0  0  0  0
    8.3551   -2.8549   28.3459 H   0  0  0  0  0  0  0  0  0  0  0  0
    6.1863   -3.6567   24.7042 H   0  0  0  0  0  0  0  0  0  0  0  0
    7.5486   -5.3068   22.9487 H   0  0  0  0  0  0  0  0  0  0  0  0
    6.6916   -3.7635   22.6614 H   0  0  0  0  0  0  0  0  0  0  0  0
    8.1310   -4.5033   20.9522 H   0  0  0  0  0  0  0  0  0  0  0  0
    8.6894   -3.9705   20.1801 H   0  0  0  0  0  0  0  0  0  0  0  0
   13.8100   -4.7716   20.7288 H   0  0  0  0  0  0  0  0  0  0  0  0
   13.8154   -3.3780   23.1314 H   0  0  0  0  0  0  0  0  0  0  0  0
   11.4389   -2.6835   23.4315 H   0  0  0  0  0  0  0  0  0  0  0  0
    5.3376   -1.2401   25.9290 H   0  0  0  0  0  0  0  0  0  0  0  0
    3.1747   -1.5721   27.8830 H   0  0  0  0  0  0  0  0  0  0  0  0
  1  2  1  0
  2  3  1  0
  3  4  2  0
  4  5  1  0
  5  6  2  0
  6  7  1  0
  7  8  1  0
  8  9  1  0
  9 10  2  0
  9 11  1  0
 11 12  1  0
 12 13  1  0
 13 14  1  0
 14 15  2  0
 15 16  1  0
 16 17  2  0
 17 18  1  0
  8 19  2  0
 19 20  1  0
 20 21  2  0
 21  3  1  0
 20  6  1  0
 18 14  1  0
  1 22  1  0
  1 23  1  0
  1 24  1  0
  4 25  1  0
  5 26  1  0
  7 27  1  0
 11 28  1  0
 12 29  1  0
 12 30  1  0
 13 31  1  0
 13 32  1  0
 16 33  1  0
 17 34  1  0
 18 35  1  0
 19 36  1  0
 21 37  1  0
M  END
>  <Energy>  (1371) 
444.82672506211912

>  <compound_id>  (1371) 
47241

>  <target_id>  (1371) 
1

>  <reference_id>  (1371) 
80

>  <inspiration_ids>  (1371) 
[40, 80]

>  <energy_score>  (1371) 
432.28397501279636

>  <distance_score>  (1371) 
7.89280877802536

>  <path>  (1371) 
/opt/xchem-fragalysis-2/maxwin/BulkDock/SCRATCH/511023/C47241-P80/C47241-P80.minimised.mol

>  <scratch_subdir>  (1371) 
/opt/xchem-fragalysis-2/maxwin/BulkDock/SCRATCH/511023/C47241-P80

>  <fragmenstein_runtime>  (1371) 
11.795617818832397

>  <fragmenstein_outcome>  (1371) 
too moved

>  <fragmenstein_mode>  (1371) 
expansion

>  <fragmenstein_error>  (1371) 


$$$$
C47242-P40
     RDKit          3D

 37 39  0  0  0  0  0  0  0  0999 V2000
    3.6324   -8.0448   25.2386 C   0  0  0  0  0  0  0  0  0  0  0  0
    3.3668   -7.3635   26.4760 O   0  0  0  0  0  0  0  0  0  0  0  0
    4.3651   -6.4968   26.8495 C   0  0  0  0  0  0  0  0  0  0  0  0
    3.9747   -5.3461   27.5377 C   0  0  0  0  0  0  0  0  0  0  0  0
    4.9086   -4.3527   27.8741 C   0  0  0  0  0  0  0  0  0  0  0  0
    6.2447   -4.5620   27.4949 C   0  0  0  0  0  0  0  0  0  0  0  0
    7.3580   -3.7498   27.5911 N   0  0  0  0  0  0  0  0  0  0  0  0
    8.4669   -4.3161   26.9686 C   0  0  0  0  0  0  0  0  0  0  0  0
    9.7116   -3.5400   26.7393 C   0  0  0  0  0  0  0  0  0  0  0  0
    9.9142   -2.6112   27.4647 O   0  0  0  0  0  0  0  0  0  0  0  0
   10.4350   -4.0043   25.5853 N   0  0  0  0  0  0  0  0  0  0  0  0
   11.5922   -3.4306   24.8738 C   0  0  0  0  0  0  0  0  0  0  0  0
   12.4892   -4.4474   24.1329 C   0  0  0  0  0  0  0  0  0  0  0  0
   12.8586   -4.1263   22.7094 C   0  0  0  0  0  0  0  0  0  0  0  0
   12.5413   -4.8172   21.5567 C   0  0  0  0  0  0  0  0  0  0  0  0
   13.2159   -4.1906   20.5418 N   0  0  0  0  0  0  0  0  0  0  0  0
   13.9269   -3.1713   21.1023 C   0  0  0  0  0  0  0  0  0  0  0  0
   13.7322   -3.1058   22.4011 N   0  0  0  0  0  0  0  0  0  0  0  0
    8.0686   -5.6027   26.6330 C   0  0  0  0  0  0  0  0  0  0  0  0
    6.6673   -5.7312   26.8729 C   0  0  0  0  0  0  0  0  0  0  0  0
    5.7174   -6.7257   26.5692 C   0  0  0  0  0  0  0  0  0  0  0  0
    2.6860   -8.4333   24.8575 H   0  0  0  0  0  0  0  0  0  0  0  0
    4.3023   -8.8946   25.3888 H   0  0  0  0  0  0  0  0  0  0  0  0
    4.0525   -7.3697   24.4900 H   0  0  0  0  0  0  0  0  0  0  0  0
    2.9265   -5.1877   27.7740 H   0  0  0  0  0  0  0  0  0  0  0  0
    4.5983   -3.4344   28.3621 H   0  0  0  0  0  0  0  0  0  0  0  0
    7.3595   -2.8021   27.9430 H   0  0  0  0  0  0  0  0  0  0  0  0
    9.9316   -4.7672   25.1691 H   0  0  0  0  0  0  0  0  0  0  0  0
   12.1785   -2.8687   25.6093 H   0  0  0  0  0  0  0  0  0  0  0  0
   11.1760   -2.6997   24.1772 H   0  0  0  0  0  0  0  0  0  0  0  0
   13.4261   -4.5424   24.6982 H   0  0  0  0  0  0  0  0  0  0  0  0
   12.0364   -5.4449   24.1684 H   0  0  0  0  0  0  0  0  0  0  0  0
   11.9282   -5.6833   21.3665 H   0  0  0  0  0  0  0  0  0  0  0  0
   13.1900   -4.4421   19.5613 H   0  0  0  0  0  0  0  0  0  0  0  0
   14.5646   -2.5176   20.5235 H   0  0  0  0  0  0  0  0  0  0  0  0
    8.6901   -6.3491   26.1601 H   0  0  0  0  0  0  0  0  0  0  0  0
    6.0512   -7.6272   26.0672 H   0  0  0  0  0  0  0  0  0  0  0  0
  1  2  1  0
  2  3  1  0
  3  4  2  0
  4  5  1  0
  5  6  2  0
  6  7  1  0
  7  8  1  0
  8  9  1  0
  9 10  2  0
  9 11  1  0
 11 12  1  0
 12 13  1  0
 13 14  1  0
 14 15  2  0
 15 16  1  0
 16 17  1  0
 17 18  2  0
  8 19  2  0
 19 20  1  0
 20 21  2  0
 21  3  1  0
 20  6  1  0
 18 14  1  0
  1 22  1  0
  1 23  1  0
  1 24  1  0
  4 25  1  0
  5 26  1  0
  7 27  1  0
 11 28  1  0
 12 29  1  0
 12 30  1  0
 13 31  1  0
 13 32  1  0
 15 33  1  0
 16 34  1  0
 17 35  1  0
 19 36  1  0
 21 37  1  0
M  END
>  <Energy>  (1372) 
1.4551695376621696

>  <compound_id>  (1372) 
47242

>  <target_id>  (1372) 
1

>  <reference_id>  (1372) 
40

>  <inspiration_ids>  (1372) 
[40, 80]

>  <energy_score>  (1372) 
-11.600420980549984

>  <distance_score>  (1372) 
7.9807169157887135

>  <path>  (1372) 
/opt/xchem-fragalysis-2/maxwin/BulkDock/SCRATCH/511023/C47242-P40/C47242-P40.minimised.mol

>  <scratch_subdir>  (1372) 
/opt/xchem-fragalysis-2/maxwin/BulkDock/SCRATCH/511023/C47242-P40

>  <fragmenstein_runtime>  (1372) 
11.361320495605469

>  <fragmenstein_outcome>  (1372) 
too moved

>  <fragmenstein_mode>  (1372) 
expansion

>  <fragmenstein_error>  (1372) 


$$$$
C47242-P80
     RDKit          3D

 37 39  0  0  0  0  0  0  0  0999 V2000
    0.7910   -1.3373   31.7573 C   0  0  0  0  0  0  0  0  0  0  0  0
    1.8023   -0.6322   31.0498 O   0  0  0  0  0  0  0  0  0  0  0  0
    2.1083   -1.0831   29.7923 C   0  0  0  0  0  0  0  0  0  0  0  0
    1.4882   -2.1378   29.1340 C   0  0  0  0  0  0  0  0  0  0  0  0
    1.8937   -2.5064   27.8472 C   0  0  0  0  0  0  0  0  0  0  0  0
    2.9304   -1.7890   27.2328 C   0  0  0  0  0  0  0  0  0  0  0  0
    3.5265   -1.9147   25.9861 N   0  0  0  0  0  0  0  0  0  0  0  0
    4.7572   -1.2763   25.9913 C   0  0  0  0  0  0  0  0  0  0  0  0
    5.9989   -1.8849   25.4520 C   0  0  0  0  0  0  0  0  0  0  0  0
    6.9674   -1.8061   26.1822 O   0  0  0  0  0  0  0  0  0  0  0  0
    5.8222   -2.6045   24.1122 N   0  0  0  0  0  0  0  0  0  0  0  0
    7.0564   -3.8060   23.1071 C   0  0  0  0  0  0  0  0  0  0  0  0
    8.0773   -3.6880   21.2781 C   0  0  0  0  0  0  0  0  0  0  0  0
    9.5573   -2.8112   20.0639 C   0  0  0  0  0  0  0  0  0  0  0  0
    8.5221   -1.4827   18.9588 C   0  0  0  0  0  0  0  0  0  0  0  0
    9.1194   -1.7502   16.9937 N   0  0  0  0  0  0  0  0  0  0  0  0
   10.9868   -2.2713   17.1745 C   0  0  0  0  0  0  0  0  0  0  0  0
   11.4415   -2.6799   18.8975 N   0  0  0  0  0  0  0  0  0  0  0  0
    4.6767   -0.3673   27.0437 C   0  0  0  0  0  0  0  0  0  0  0  0
    3.5842   -0.7502   27.8768 C   0  0  0  0  0  0  0  0  0  0  0  0
    3.1564   -0.3889   29.1693 C   0  0  0  0  0  0  0  0  0  0  0  0
    1.0738   -2.3835   31.9147 H   0  0  0  0  0  0  0  0  0  0  0  0
   -0.1744   -1.2604   31.2464 H   0  0  0  0  0  0  0  0  0  0  0  0
    0.6841   -0.8705   32.7413 H   0  0  0  0  0  0  0  0  0  0  0  0
    0.6806   -2.7011   29.5876 H   0  0  0  0  0  0  0  0  0  0  0  0
    1.4183   -3.3407   27.3543 H   0  0  0  0  0  0  0  0  0  0  0  0
    3.2405   -2.6099   25.3110 H   0  0  0  0  0  0  0  0  0  0  0  0
    4.8926   -2.3848   23.7324 H   0  0  0  0  0  0  0  0  0  0  0  0
    6.8979   -4.8828   23.2839 H   0  0  0  0  0  0  0  0  0  0  0  0
    7.5949   -3.8029   23.9986 H   0  0  0  0  0  0  0  0  0  0  0  0
    8.0024   -4.6023   20.7064 H   0  0  0  0  0  0  0  0  0  0  0  0
    7.1446   -3.2380   21.0355 H   0  0  0  0  0  0  0  0  0  0  0  0
    7.6422   -0.8012   19.0922 H   0  0  0  0  0  0  0  0  0  0  0  0
    8.9767   -0.9470   16.3841 H   0  0  0  0  0  0  0  0  0  0  0  0
   11.6192   -1.9155   16.3694 H   0  0  0  0  0  0  0  0  0  0  0  0
    5.4866    0.2847   27.3452 H   0  0  0  0  0  0  0  0  0  0  0  0
    3.6669    0.4081   29.7020 H   0  0  0  0  0  0  0  0  0  0  0  0
  1  2  1  0
  2  3  1  0
  3  4  2  0
  4  5  1  0
  5  6  2  0
  6  7  1  0
  7  8  1  0
  8  9  1  0
  9 10  2  0
  9 11  1  0
 11 12  1  0
 12 13  1  0
 13 14  1  0
 14 15  2  0
 15 16  1  0
 16 17  1  0
 17 18  2  0
  8 19  2  0
 19 20  1  0
 20 21  2  0
 21  3  1  0
 20  6  1  0
 18 14  1  0
  1 22  1  0
  1 23  1  0
  1 24  1  0
  4 25  1  0
  5 26  1  0
  7 27  1  0
 11 28  1  0
 12 29  1  0
 12 30  1  0
 13 31  1  0
 13 32  1  0
 15 33  1  0
 16 34  1  0
 17 35  1  0
 19 36  1  0
 21 37  1  0
M  END
>  <Energy>  (1373) 
1129.5063123124903

>  <compound_id>  (1373) 
47242

>  <target_id>  (1373) 
1

>  <reference_id>  (1373) 
80

>  <inspiration_ids>  (1373) 
[40, 80]

>  <energy_score>  (1373) 
1116.4507217942996

>  <distance_score>  (1373) 
6.818998390330886

>  <path>  (1373) 
/opt/xchem-fragalysis-2/maxwin/BulkDock/SCRATCH/511023/C47242-P80/C47242-P80.minimised.mol

>  <scratch_subdir>  (1373) 
/opt/xchem-fragalysis-2/maxwin/BulkDock/SCRATCH/511023/C47242-P80

>  <fragmenstein_runtime>  (1373) 
12.028760194778442

>  <fragmenstein_outcome>  (1373) 
too moved

>  <fragmenstein_mode>  (1373) 
expansion

>  <fragmenstein_error>  (1373) 


$$$$
C47243-P40
     RDKit          3D

 34 36  0  0  0  0  0  0  0  0999 V2000
    6.1880   -3.3958   23.0541 C   0  0  0  0  0  0  0  0  0  0  0  0
    7.0327   -4.7784   22.6072 C   0  0  0  0  0  0  0  0  0  0  0  0
    6.7112   -5.4096   24.0135 N   0  0  0  0  0  0  0  0  0  0  0  0
    6.2723   -6.7113   24.3782 C   0  0  0  0  0  0  0  0  0  0  0  0
    6.1129   -7.6928   23.7207 O   0  0  0  0  0  0  0  0  0  0  0  0
    5.8926   -6.6893   25.8014 C   0  0  0  0  0  0  0  0  0  0  0  0
    6.4198   -5.9525   26.8475 N   0  0  0  0  0  0  0  0  0  0  0  0
    5.4312   -5.6564   27.7739 C   0  0  0  0  0  0  0  0  0  0  0  0
    5.4346   -4.7705   28.8595 C   0  0  0  0  0  0  0  0  0  0  0  0
    4.2421   -4.6064   29.5753 C   0  0  0  0  0  0  0  0  0  0  0  0
    3.0955   -5.3168   29.2343 C   0  0  0  0  0  0  0  0  0  0  0  0
    3.1166   -6.2222   28.1715 C   0  0  0  0  0  0  0  0  0  0  0  0
    4.3022   -6.3893   27.4227 C   0  0  0  0  0  0  0  0  0  0  0  0
    4.6395   -7.1022   26.2401 C   0  0  0  0  0  0  0  0  0  0  0  0
    3.7272   -7.8849   25.4769 C   0  0  0  0  0  0  0  0  0  0  0  0
    2.8898   -8.4956   24.9650 N   0  0  0  0  0  0  0  0  0  0  0  0
    8.0393   -4.2950   20.9647 C   0  0  0  0  0  0  0  0  0  0  0  0
    8.7210   -4.3430   19.8922 N   0  0  0  0  0  0  0  0  0  0  0  0
   10.0500   -5.5153   19.7400 C   0  0  0  0  0  0  0  0  0  0  0  0
   10.6326   -5.9423   20.9342 C   0  0  0  0  0  0  0  0  0  0  0  0
    9.9140   -4.8334   20.9543 N   0  0  0  0  0  0  0  0  0  0  0  0
    5.6829   -3.7100   24.0136 H   0  0  0  0  0  0  0  0  0  0  0  0
    5.6928   -2.9182   22.2023 H   0  0  0  0  0  0  0  0  0  0  0  0
    6.2527   -2.5240   23.7025 H   0  0  0  0  0  0  0  0  0  0  0  0
    6.7086   -5.7450   22.2105 H   0  0  0  0  0  0  0  0  0  0  0  0
    6.8075   -4.8470   24.8494 H   0  0  0  0  0  0  0  0  0  0  0  0
    7.3227   -5.4965   26.8323 H   0  0  0  0  0  0  0  0  0  0  0  0
    6.3194   -4.1968   29.1212 H   0  0  0  0  0  0  0  0  0  0  0  0
    4.2133   -3.9014   30.4045 H   0  0  0  0  0  0  0  0  0  0  0  0
    2.1779   -5.1551   29.7952 H   0  0  0  0  0  0  0  0  0  0  0  0
    2.2099   -6.7480   27.8971 H   0  0  0  0  0  0  0  0  0  0  0  0
   10.5831   -5.3616   18.7955 H   0  0  0  0  0  0  0  0  0  0  0  0
   11.6763   -6.1218   21.1681 H   0  0  0  0  0  0  0  0  0  0  0  0
   10.5346   -4.0077   20.9070 H   0  0  0  0  0  0  0  0  0  0  0  0
  1  2  1  0
  2  3  1  0
  3  4  1  0
  4  5  2  0
  4  6  1  0
  6  7  1  0
  7  8  1  0
  8  9  2  0
  9 10  1  0
 10 11  2  0
 11 12  1  0
 12 13  2  0
 13 14  1  0
 14 15  1  0
 15 16  3  0
  2 17  1  0
 17 18  2  0
 18 19  1  0
 19 20  2  0
 20 21  1  0
 14  6  2  0
 21 17  1  0
 13  8  1  0
  1 22  1  0
  1 23  1  0
  1 24  1  0
  2 25  1  0
  3 26  1  0
  7 27  1  0
  9 28  1  0
 10 29  1  0
 11 30  1  0
 12 31  1  0
 19 32  1  0
 20 33  1  0
 21 34  1  0
M  END
>  <Energy>  (1374) 
544.20067841076434

>  <compound_id>  (1374) 
47243

>  <target_id>  (1374) 
1

>  <reference_id>  (1374) 
40

>  <inspiration_ids>  (1374) 
[40, 80]

>  <energy_score>  (1374) 
539.2103555990366

>  <distance_score>  (1374) 
6.915283680855671

>  <path>  (1374) 
/opt/xchem-fragalysis-2/maxwin/BulkDock/SCRATCH/511023/C47243-P40/C47243-P40.minimised.mol

>  <scratch_subdir>  (1374) 
/opt/xchem-fragalysis-2/maxwin/BulkDock/SCRATCH/511023/C47243-P40

>  <fragmenstein_runtime>  (1374) 
8.408990383148193

>  <fragmenstein_outcome>  (1374) 
too moved

>  <fragmenstein_mode>  (1374) 
expansion

>  <fragmenstein_error>  (1374) 


$$$$
C47243-P80
     RDKit          3D

 34 36  0  0  0  0  0  0  0  0999 V2000
    2.6693   -2.3622   30.1745 C   0  0  0  0  0  0  0  0  0  0  0  0
    2.1210   -2.0918   28.7758 C   0  0  0  0  0  0  0  0  0  0  0  0
    1.2544   -3.1657   28.2862 N   0  0  0  0  0  0  0  0  0  0  0  0
    0.5269   -4.2248   29.0078 C   0  0  0  0  0  0  0  0  0  0  0  0
    0.4004   -4.4215   30.1787 O   0  0  0  0  0  0  0  0  0  0  0  0
   -0.0258   -5.2141   28.0494 C   0  0  0  0  0  0  0  0  0  0  0  0
    0.5744   -5.3239   26.8574 N   0  0  0  0  0  0  0  0  0  0  0  0
   -0.0576   -6.0593   25.8820 C   0  0  0  0  0  0  0  0  0  0  0  0
    0.2680   -6.2382   24.3715 C   0  0  0  0  0  0  0  0  0  0  0  0
   -0.0552   -7.2378   23.6049 C   0  0  0  0  0  0  0  0  0  0  0  0
   -1.1233   -7.6676   24.1866 C   0  0  0  0  0  0  0  0  0  0  0  0
   -1.3131   -7.7096   25.6569 C   0  0  0  0  0  0  0  0  0  0  0  0
   -0.8380   -6.8534   26.6230 C   0  0  0  0  0  0  0  0  0  0  0  0
   -0.6939   -6.4396   28.0289 C   0  0  0  0  0  0  0  0  0  0  0  0
   -0.9744   -7.1015   29.2582 C   0  0  0  0  0  0  0  0  0  0  0  0
   -1.2240   -7.6082   30.2734 N   0  0  0  0  0  0  0  0  0  0  0  0
    3.2864   -1.8331   27.7731 C   0  0  0  0  0  0  0  0  0  0  0  0
    4.5437   -1.5708   28.1001 N   0  0  0  0  0  0  0  0  0  0  0  0
    5.2223   -1.3260   26.9325 C   0  0  0  0  0  0  0  0  0  0  0  0
    4.3787   -1.4269   25.8606 C   0  0  0  0  0  0  0  0  0  0  0  0
    3.1681   -1.7687   26.3964 N   0  0  0  0  0  0  0  0  0  0  0  0
    1.8597   -2.4391   30.9072 H   0  0  0  0  0  0  0  0  0  0  0  0
    3.2425   -3.2960   30.2044 H   0  0  0  0  0  0  0  0  0  0  0  0
    3.3283   -1.5522   30.5062 H   0  0  0  0  0  0  0  0  0  0  0  0
    1.5049   -1.1853   28.7954 H   0  0  0  0  0  0  0  0  0  0  0  0
    1.0803   -3.2557   27.3063 H   0  0  0  0  0  0  0  0  0  0  0  0
    1.4689   -4.8837   26.7153 H   0  0  0  0  0  0  0  0  0  0  0  0
    1.0406   -5.7004   23.8089 H   0  0  0  0  0  0  0  0  0  0  0  0
    0.2812   -7.4689   22.6137 H   0  0  0  0  0  0  0  0  0  0  0  0
   -1.7316   -8.2564   23.4768 H   0  0  0  0  0  0  0  0  0  0  0  0
   -1.9472   -8.5463   25.8181 H   0  0  0  0  0  0  0  0  0  0  0  0
    6.2825   -1.1149   26.9344 H   0  0  0  0  0  0  0  0  0  0  0  0
    4.5339   -1.3263   24.7964 H   0  0  0  0  0  0  0  0  0  0  0  0
    2.3359   -1.9448   25.8503 H   0  0  0  0  0  0  0  0  0  0  0  0
  1  2  1  0
  2  3  1  0
  3  4  1  0
  4  5  2  0
  4  6  1  0
  6  7  1  0
  7  8  1  0
  8  9  2  0
  9 10  1  0
 10 11  2  0
 11 12  1  0
 12 13  2  0
 13 14  1  0
 14 15  1  0
 15 16  3  0
  2 17  1  0
 17 18  2  0
 18 19  1  0
 19 20  2  0
 20 21  1  0
 14  6  2  0
 21 17  1  0
 13  8  1  0
  1 22  1  0
  1 23  1  0
  1 24  1  0
  2 25  1  0
  3 26  1  0
  7 27  1  0
  9 28  1  0
 10 29  1  0
 11 30  1  0
 12 31  1  0
 19 32  1  0
 20 33  1  0
 21 34  1  0
M  END
>  <Energy>  (1375) 
98.843963471186498

>  <compound_id>  (1375) 
47243

>  <target_id>  (1375) 
1

>  <reference_id>  (1375) 
80

>  <inspiration_ids>  (1375) 
[40, 80]

>  <energy_score>  (1375) 
93.85364065945339

>  <distance_score>  (1375) 
8.788599863383771

>  <path>  (1375) 
/opt/xchem-fragalysis-2/maxwin/BulkDock/SCRATCH/511023/C47243-P80/C47243-P80.minimised.mol

>  <scratch_subdir>  (1375) 
/opt/xchem-fragalysis-2/maxwin/BulkDock/SCRATCH/511023/C47243-P80

>  <fragmenstein_runtime>  (1375) 
11.488036870956421

>  <fragmenstein_outcome>  (1375) 
too moved

>  <fragmenstein_mode>  (1375) 
expansion

>  <fragmenstein_error>  (1375) 


$$$$
C47244-P40
     RDKit          3D

 34 36  0  0  0  0  0  0  0  0999 V2000
    4.2734    0.1346   27.2077 N   0  0  0  0  0  0  0  0  0  0  0  0
    4.4132   -0.9476   26.8095 C   0  0  0  0  0  0  0  0  0  0  0  0
    4.5906   -2.3226   26.4365 C   0  0  0  0  0  0  0  0  0  0  0  0
    5.0822   -2.7966   25.2138 C   0  0  0  0  0  0  0  0  0  0  0  0
    5.1524   -2.0258   23.9255 C   0  0  0  0  0  0  0  0  0  0  0  0
    4.6202   -0.9588   23.9930 O   0  0  0  0  0  0  0  0  0  0  0  0
    5.7927   -2.7560   22.7074 N   0  0  0  0  0  0  0  0  0  0  0  0
    5.9360   -2.2329   20.8564 C   0  0  0  0  0  0  0  0  0  0  0  0
    6.9400   -0.6561   20.0629 C   0  0  0  0  0  0  0  0  0  0  0  0
    7.3032    0.1353   18.6374 C   0  0  0  0  0  0  0  0  0  0  0  0
    8.4612    0.7667   18.4635 N   0  0  0  0  0  0  0  0  0  0  0  0
    8.5884    1.0115   17.1261 C   0  0  0  0  0  0  0  0  0  0  0  0
    7.5363    0.4313   16.4779 C   0  0  0  0  0  0  0  0  0  0  0  0
    6.5947    0.1806   17.4513 N   0  0  0  0  0  0  0  0  0  0  0  0
    5.2490   -4.1560   25.4188 N   0  0  0  0  0  0  0  0  0  0  0  0
    4.4820   -4.5759   26.4901 C   0  0  0  0  0  0  0  0  0  0  0  0
    4.1088   -5.8613   26.8962 C   0  0  0  0  0  0  0  0  0  0  0  0
    3.3053   -5.9707   28.0363 C   0  0  0  0  0  0  0  0  0  0  0  0
    2.9141   -4.8491   28.7571 C   0  0  0  0  0  0  0  0  0  0  0  0
    3.3149   -3.5756   28.3475 C   0  0  0  0  0  0  0  0  0  0  0  0
    4.0982   -3.4337   27.1821 C   0  0  0  0  0  0  0  0  0  0  0  0
    6.2358   -3.6199   23.0240 H   0  0  0  0  0  0  0  0  0  0  0  0
    6.8110   -2.8846   21.0634 H   0  0  0  0  0  0  0  0  0  0  0  0
    5.3535   -2.8656   20.1921 H   0  0  0  0  0  0  0  0  0  0  0  0
    7.9260   -0.4841   20.3036 H   0  0  0  0  0  0  0  0  0  0  0  0
    6.4143    0.2509   20.2202 H   0  0  0  0  0  0  0  0  0  0  0  0
    9.4812    1.4585   16.7074 H   0  0  0  0  0  0  0  0  0  0  0  0
    7.4036    0.1442   15.4487 H   0  0  0  0  0  0  0  0  0  0  0  0
    5.7076   -0.2878   17.3303 H   0  0  0  0  0  0  0  0  0  0  0  0
    5.6659   -4.7891   24.7508 H   0  0  0  0  0  0  0  0  0  0  0  0
    4.4238   -6.7419   26.3425 H   0  0  0  0  0  0  0  0  0  0  0  0
    2.9949   -6.9522   28.3659 H   0  0  0  0  0  0  0  0  0  0  0  0
    2.2975   -4.9516   29.6462 H   0  0  0  0  0  0  0  0  0  0  0  0
    2.9941   -2.6974   28.9041 H   0  0  0  0  0  0  0  0  0  0  0  0
  1  2  3  0
  2  3  1  0
  3  4  2  0
  4  5  1  0
  5  6  2  0
  5  7  1  0
  7  8  1  0
  8  9  1  0
  9 10  1  0
 10 11  2  0
 11 12  1  0
 12 13  2  0
 13 14  1  0
  4 15  1  0
 15 16  1  0
 16 17  2  0
 17 18  1  0
 18 19  2  0
 19 20  1  0
 20 21  2  0
 21  3  1  0
 14 10  1  0
 21 16  1  0
  7 22  1  0
  8 23  1  0
  8 24  1  0
  9 25  1  0
  9 26  1  0
 12 27  1  0
 13 28  1  0
 14 29  1  0
 15 30  1  0
 17 31  1  0
 18 32  1  0
 19 33  1  0
 20 34  1  0
M  END
>  <Energy>  (1376) 
231.23586378678439

>  <compound_id>  (1376) 
47244

>  <target_id>  (1376) 
1

>  <reference_id>  (1376) 
40

>  <inspiration_ids>  (1376) 
[40, 80]

>  <energy_score>  (1376) 
221.39822297939855

>  <distance_score>  (1376) 
7.059923581016503

>  <path>  (1376) 
/opt/xchem-fragalysis-2/maxwin/BulkDock/SCRATCH/511023/C47244-P40/C47244-P40.minimised.mol

>  <scratch_subdir>  (1376) 
/opt/xchem-fragalysis-2/maxwin/BulkDock/SCRATCH/511023/C47244-P40

>  <fragmenstein_runtime>  (1376) 
17.912163257598877

>  <fragmenstein_outcome>  (1376) 
too moved

>  <fragmenstein_mode>  (1376) 
expansion

>  <fragmenstein_error>  (1376) 


$$$$
C47244-P80
     RDKit          3D

 34 36  0  0  0  0  0  0  0  0999 V2000
    2.8693   -3.0435   26.5158 N   0  0  0  0  0  0  0  0  0  0  0  0
    3.2410   -2.6323   25.4869 C   0  0  0  0  0  0  0  0  0  0  0  0
    3.7639   -1.6097   24.5741 C   0  0  0  0  0  0  0  0  0  0  0  0
    4.8642   -1.5203   23.5543 C   0  0  0  0  0  0  0  0  0  0  0  0
    5.5978   -1.7414   21.8567 C   0  0  0  0  0  0  0  0  0  0  0  0
    5.5027   -2.8534   21.4366 O   0  0  0  0  0  0  0  0  0  0  0  0
    6.5244   -0.4463   20.9980 N   0  0  0  0  0  0  0  0  0  0  0  0
    7.3603   -0.4916   19.8155 C   0  0  0  0  0  0  0  0  0  0  0  0
    7.4751   -0.1358   18.3906 C   0  0  0  0  0  0  0  0  0  0  0  0
    8.4503    0.1452   17.1405 C   0  0  0  0  0  0  0  0  0  0  0  0
    9.2687    1.1783   17.0226 N   0  0  0  0  0  0  0  0  0  0  0  0
   10.0124    0.9755   15.8964 C   0  0  0  0  0  0  0  0  0  0  0  0
    9.5916   -0.1593   15.2675 C   0  0  0  0  0  0  0  0  0  0  0  0
    8.4864   -0.5732   15.9578 N   0  0  0  0  0  0  0  0  0  0  0  0
    5.6011   -1.8954   24.7702 N   0  0  0  0  0  0  0  0  0  0  0  0
    5.3132   -1.1298   25.9143 C   0  0  0  0  0  0  0  0  0  0  0  0
    5.9174   -1.0576   27.1792 C   0  0  0  0  0  0  0  0  0  0  0  0
    5.2597   -0.3077   28.1502 C   0  0  0  0  0  0  0  0  0  0  0  0
    4.0479    0.3027   27.8586 C   0  0  0  0  0  0  0  0  0  0  0  0
    3.4603    0.1594   26.5917 C   0  0  0  0  0  0  0  0  0  0  0  0
    4.1241   -0.5458   25.5490 C   0  0  0  0  0  0  0  0  0  0  0  0
    6.3956    0.4387   21.4897 H   0  0  0  0  0  0  0  0  0  0  0  0
    8.3188   -0.8115   19.9948 H   0  0  0  0  0  0  0  0  0  0  0  0
    7.6239    0.4781   20.2294 H   0  0  0  0  0  0  0  0  0  0  0  0
    6.5794   -0.6734   18.0179 H   0  0  0  0  0  0  0  0  0  0  0  0
    7.4872    0.9653   18.6206 H   0  0  0  0  0  0  0  0  0  0  0  0
   10.8093    1.6488   15.6098 H   0  0  0  0  0  0  0  0  0  0  0  0
    9.9214   -0.6344   14.3618 H   0  0  0  0  0  0  0  0  0  0  0  0
    7.8368   -1.2848   15.6474 H   0  0  0  0  0  0  0  0  0  0  0  0
    6.0963   -2.7690   24.8878 H   0  0  0  0  0  0  0  0  0  0  0  0
    6.8333   -1.5959   27.3956 H   0  0  0  0  0  0  0  0  0  0  0  0
    5.6809   -0.2314   29.1485 H   0  0  0  0  0  0  0  0  0  0  0  0
    3.5118    0.8375   28.6382 H   0  0  0  0  0  0  0  0  0  0  0  0
    2.4500    0.5226   26.4779 H   0  0  0  0  0  0  0  0  0  0  0  0
  1  2  3  0
  2  3  1  0
  3  4  2  0
  4  5  1  0
  5  6  2  0
  5  7  1  0
  7  8  1  0
  8  9  1  0
  9 10  1  0
 10 11  2  0
 11 12  1  0
 12 13  2  0
 13 14  1  0
  4 15  1  0
 15 16  1  0
 16 17  2  0
 17 18  1  0
 18 19  2  0
 19 20  1  0
 20 21  2  0
 21  3  1  0
 14 10  1  0
 21 16  1  0
  7 22  1  0
  8 23  1  0
  8 24  1  0
  9 25  1  0
  9 26  1  0
 12 27  1  0
 13 28  1  0
 14 29  1  0
 15 30  1  0
 17 31  1  0
 18 32  1  0
 19 33  1  0
 20 34  1  0
M  END
>  <Energy>  (1377) 
357.86802502213231

>  <compound_id>  (1377) 
47244

>  <target_id>  (1377) 
1

>  <reference_id>  (1377) 
80

>  <inspiration_ids>  (1377) 
[40, 80]

>  <energy_score>  (1377) 
348.0303842147419

>  <distance_score>  (1377) 
8.23808499938879

>  <path>  (1377) 
/opt/xchem-fragalysis-2/maxwin/BulkDock/SCRATCH/511023/C47244-P80/C47244-P80.minimised.mol

>  <scratch_subdir>  (1377) 
/opt/xchem-fragalysis-2/maxwin/BulkDock/SCRATCH/511023/C47244-P80

>  <fragmenstein_runtime>  (1377) 
12.45557451248169

>  <fragmenstein_outcome>  (1377) 
too moved

>  <fragmenstein_mode>  (1377) 
expansion

>  <fragmenstein_error>  (1377) 


$$$$
C25221-P40
     RDKit          3D

 36 38  0  0  0  0  0  0  0  0999 V2000
    1.1762   -5.9785   29.5358 C   0  0  0  0  0  0  0  0  0  0  0  0
    1.9711   -4.9495   28.9073 N   0  0  0  0  0  0  0  0  0  0  0  0
    3.2470   -5.0963   28.3833 C   0  0  0  0  0  0  0  0  0  0  0  0
    3.9560   -6.3590   28.2039 C   0  0  0  0  0  0  0  0  0  0  0  0
    3.3160   -7.2955   27.8290 O   0  0  0  0  0  0  0  0  0  0  0  0
    5.3415   -6.2528   28.5542 N   0  0  0  0  0  0  0  0  0  0  0  0
    6.4268   -7.2252   28.4732 C   0  0  0  0  0  0  0  0  0  0  0  0
    7.5851   -6.8421   27.5127 C   0  0  0  0  0  0  0  0  0  0  0  0
    7.0549   -6.4034   26.2132 C   0  0  0  0  0  0  0  0  0  0  0  0
    6.7033   -5.1438   25.7985 C   0  0  0  0  0  0  0  0  0  0  0  0
    6.0028   -5.2056   24.6408 N   0  0  0  0  0  0  0  0  0  0  0  0
    5.9566   -6.4730   24.3291 C   0  0  0  0  0  0  0  0  0  0  0  0
    6.6362   -7.2422   25.2186 N   0  0  0  0  0  0  0  0  0  0  0  0
    3.6442   -3.8333   27.9823 C   0  0  0  0  0  0  0  0  0  0  0  0
    2.5964   -2.9206   28.2491 C   0  0  0  0  0  0  0  0  0  0  0  0
    2.4344   -1.5456   28.0185 C   0  0  0  0  0  0  0  0  0  0  0  0
    1.2306   -0.9303   28.3701 C   0  0  0  0  0  0  0  0  0  0  0  0
    0.2036   -1.6594   28.9582 C   0  0  0  0  0  0  0  0  0  0  0  0
    0.3477   -3.0240   29.2037 C   0  0  0  0  0  0  0  0  0  0  0  0
    1.5539   -3.6373   28.8283 C   0  0  0  0  0  0  0  0  0  0  0  0
    1.4614   -6.0180   30.5888 H   0  0  0  0  0  0  0  0  0  0  0  0
    0.1157   -5.7311   29.4682 H   0  0  0  0  0  0  0  0  0  0  0  0
    1.3243   -6.9371   29.0420 H   0  0  0  0  0  0  0  0  0  0  0  0
    5.5591   -5.2828   28.7493 H   0  0  0  0  0  0  0  0  0  0  0  0
    5.9918   -8.1780   28.1588 H   0  0  0  0  0  0  0  0  0  0  0  0
    6.8211   -7.3538   29.4863 H   0  0  0  0  0  0  0  0  0  0  0  0
    8.1641   -6.0272   27.9646 H   0  0  0  0  0  0  0  0  0  0  0  0
    8.2645   -7.6940   27.3981 H   0  0  0  0  0  0  0  0  0  0  0  0
    6.8657   -4.2024   26.3066 H   0  0  0  0  0  0  0  0  0  0  0  0
    5.4302   -6.9038   23.4962 H   0  0  0  0  0  0  0  0  0  0  0  0
    6.6533   -8.2542   25.1877 H   0  0  0  0  0  0  0  0  0  0  0  0
    4.5733   -3.5918   27.4801 H   0  0  0  0  0  0  0  0  0  0  0  0
    3.2220   -0.9667   27.5442 H   0  0  0  0  0  0  0  0  0  0  0  0
    1.0903    0.1279   28.1635 H   0  0  0  0  0  0  0  0  0  0  0  0
   -0.7334   -1.1641   29.2018 H   0  0  0  0  0  0  0  0  0  0  0  0
   -0.4756   -3.5780   29.6386 H   0  0  0  0  0  0  0  0  0  0  0  0
  1  2  1  0
  2  3  1  0
  3  4  1  0
  4  5  2  0
  4  6  1  0
  6  7  1  0
  7  8  1  0
  8  9  1  0
  9 10  2  0
 10 11  1  0
 11 12  2  0
 12 13  1  0
  3 14  2  0
 14 15  1  0
 15 16  2  0
 16 17  1  0
 17 18  2  0
 18 19  1  0
 19 20  2  0
 20  2  1  0
 13  9  1  0
 20 15  1  0
  1 21  1  0
  1 22  1  0
  1 23  1  0
  6 24  1  0
  7 25  1  0
  7 26  1  0
  8 27  1  0
  8 28  1  0
 10 29  1  0
 12 30  1  0
 13 31  1  0
 14 32  1  0
 16 33  1  0
 17 34  1  0
 18 35  1  0
 19 36  1  0
M  END
>  <Energy>  (1378) 
4.055626791655226

>  <compound_id>  (1378) 
25221

>  <target_id>  (1378) 
1

>  <reference_id>  (1378) 
40

>  <inspiration_ids>  (1378) 
[40, 80]

>  <energy_score>  (1378) 
-6.95638543394557

>  <distance_score>  (1378) 
8.128673709651947

>  <path>  (1378) 
/opt/xchem-fragalysis-2/maxwin/BulkDock/SCRATCH/511023/C25221-P40/C25221-P40.minimised.mol

>  <scratch_subdir>  (1378) 
/opt/xchem-fragalysis-2/maxwin/BulkDock/SCRATCH/511023/C25221-P40

>  <fragmenstein_runtime>  (1378) 
10.122395277023315

>  <fragmenstein_outcome>  (1378) 
too moved

>  <fragmenstein_mode>  (1378) 
expansion

>  <fragmenstein_error>  (1378) 


$$$$
C25221-P80
     RDKit          3D

 36 38  0  0  0  0  0  0  0  0999 V2000
    7.6397   -1.2102   27.2956 C   0  0  0  0  0  0  0  0  0  0  0  0
    7.7679   -2.5795   27.7504 N   0  0  0  0  0  0  0  0  0  0  0  0
    8.9461   -3.3745   27.4766 C   0  0  0  0  0  0  0  0  0  0  0  0
   10.3069   -2.7161   26.7717 C   0  0  0  0  0  0  0  0  0  0  0  0
   10.5078   -1.6343   27.2073 O   0  0  0  0  0  0  0  0  0  0  0  0
   11.0580   -3.5189   25.5944 N   0  0  0  0  0  0  0  0  0  0  0  0
   12.2392   -3.0450   24.5851 C   0  0  0  0  0  0  0  0  0  0  0  0
   12.7515   -3.9911   23.2494 C   0  0  0  0  0  0  0  0  0  0  0  0
   13.1991   -3.5247   21.8014 C   0  0  0  0  0  0  0  0  0  0  0  0
   13.0175   -4.1076   20.5405 C   0  0  0  0  0  0  0  0  0  0  0  0
   13.5838   -3.3817   19.5083 N   0  0  0  0  0  0  0  0  0  0  0  0
   14.1762   -2.3816   20.1119 C   0  0  0  0  0  0  0  0  0  0  0  0
   13.9936   -2.4333   21.4770 N   0  0  0  0  0  0  0  0  0  0  0  0
    8.5470   -4.5971   28.0872 C   0  0  0  0  0  0  0  0  0  0  0  0
    7.2347   -4.4952   28.7609 C   0  0  0  0  0  0  0  0  0  0  0  0
    6.4188   -5.3463   29.5601 C   0  0  0  0  0  0  0  0  0  0  0  0
    5.2166   -4.8585   30.1254 C   0  0  0  0  0  0  0  0  0  0  0  0
    4.7686   -3.5680   29.8792 C   0  0  0  0  0  0  0  0  0  0  0  0
    5.5380   -2.7311   29.0651 C   0  0  0  0  0  0  0  0  0  0  0  0
    6.7831   -3.2017   28.5423 C   0  0  0  0  0  0  0  0  0  0  0  0
    8.2008   -1.0891   26.3696 H   0  0  0  0  0  0  0  0  0  0  0  0
    8.0303   -0.5535   28.0764 H   0  0  0  0  0  0  0  0  0  0  0  0
    6.5882   -0.9897   27.1002 H   0  0  0  0  0  0  0  0  0  0  0  0
   10.5782   -4.3930   25.4187 H   0  0  0  0  0  0  0  0  0  0  0  0
   13.1065   -2.8735   25.2313 H   0  0  0  0  0  0  0  0  0  0  0  0
   11.9059   -2.0721   24.2175 H   0  0  0  0  0  0  0  0  0  0  0  0
   12.0035   -4.7657   23.1395 H   0  0  0  0  0  0  0  0  0  0  0  0
   13.6314   -4.5232   23.6413 H   0  0  0  0  0  0  0  0  0  0  0  0
   12.4853   -5.0245   20.3306 H   0  0  0  0  0  0  0  0  0  0  0  0
   14.7375   -1.5869   19.6401 H   0  0  0  0  0  0  0  0  0  0  0  0
   14.2948   -1.7237   22.1287 H   0  0  0  0  0  0  0  0  0  0  0  0
    9.1827   -5.4710   28.1223 H   0  0  0  0  0  0  0  0  0  0  0  0
    6.7721   -6.3434   29.7995 H   0  0  0  0  0  0  0  0  0  0  0  0
    4.6379   -5.4719   30.8024 H   0  0  0  0  0  0  0  0  0  0  0  0
    3.8404   -3.2058   30.3107 H   0  0  0  0  0  0  0  0  0  0  0  0
    5.2026   -1.7200   28.8531 H   0  0  0  0  0  0  0  0  0  0  0  0
  1  2  1  0
  2  3  1  0
  3  4  1  0
  4  5  2  0
  4  6  1  0
  6  7  1  0
  7  8  1  0
  8  9  1  0
  9 10  2  0
 10 11  1  0
 11 12  2  0
 12 13  1  0
  3 14  2  0
 14 15  1  0
 15 16  2  0
 16 17  1  0
 17 18  2  0
 18 19  1  0
 19 20  2  0
 20  2  1  0
 13  9  1  0
 20 15  1  0
  1 21  1  0
  1 22  1  0
  1 23  1  0
  6 24  1  0
  7 25  1  0
  7 26  1  0
  8 27  1  0
  8 28  1  0
 10 29  1  0
 12 30  1  0
 13 31  1  0
 14 32  1  0
 16 33  1  0
 17 34  1  0
 18 35  1  0
 19 36  1  0
M  END
>  <Energy>  (1379) 
85.915346214465501

>  <compound_id>  (1379) 
25221

>  <target_id>  (1379) 
1

>  <reference_id>  (1379) 
80

>  <inspiration_ids>  (1379) 
[40, 80]

>  <energy_score>  (1379) 
79.72863365653535

>  <distance_score>  (1379) 
8.13161282673281

>  <path>  (1379) 
/opt/xchem-fragalysis-2/maxwin/BulkDock/SCRATCH/511023/C25221-P80/C25221-P80.minimised.mol

>  <scratch_subdir>  (1379) 
/opt/xchem-fragalysis-2/maxwin/BulkDock/SCRATCH/511023/C25221-P80

>  <fragmenstein_runtime>  (1379) 
8.49761700630188

>  <fragmenstein_outcome>  (1379) 
too moved

>  <fragmenstein_mode>  (1379) 
expansion

>  <fragmenstein_error>  (1379) 


$$$$
C47245-P40
     RDKit          3D

 36 38  0  0  0  0  0  0  0  0999 V2000
    5.4612   -2.8819   19.9658 C   0  0  0  0  0  0  0  0  0  0  0  0
    6.1379   -1.6646   20.7044 C   0  0  0  0  0  0  0  0  0  0  0  0
    4.9900   -1.1384   22.3214 C   0  0  0  0  0  0  0  0  0  0  0  0
    4.9119   -1.5801   23.9305 N   0  0  0  0  0  0  0  0  0  0  0  0
    4.5623   -0.8168   25.1105 C   0  0  0  0  0  0  0  0  0  0  0  0
    4.3175    0.3487   25.2441 O   0  0  0  0  0  0  0  0  0  0  0  0
    4.3913   -1.7155   26.3503 C   0  0  0  0  0  0  0  0  0  0  0  0
    3.3789   -1.3523   27.2600 C   0  0  0  0  0  0  0  0  0  0  0  0
    2.8258   -2.2736   28.1720 C   0  0  0  0  0  0  0  0  0  0  0  0
    3.2815   -3.6027   28.1595 C   0  0  0  0  0  0  0  0  0  0  0  0
    2.9004   -4.7956   28.8366 C   0  0  0  0  0  0  0  0  0  0  0  0
    3.7218   -5.8058   28.3924 C   0  0  0  0  0  0  0  0  0  0  0  0
    4.6038   -5.2673   27.4917 N   0  0  0  0  0  0  0  0  0  0  0  0
    4.3409   -3.9280   27.3163 C   0  0  0  0  0  0  0  0  0  0  0  0
    4.9478   -3.0024   26.4488 C   0  0  0  0  0  0  0  0  0  0  0  0
    7.1549   -0.3394   19.6575 C   0  0  0  0  0  0  0  0  0  0  0  0
    6.9365   -0.0707   18.3616 N   0  0  0  0  0  0  0  0  0  0  0  0
    7.9133    0.7445   17.7901 C   0  0  0  0  0  0  0  0  0  0  0  0
    8.4601    1.3988   18.8198 C   0  0  0  0  0  0  0  0  0  0  0  0
    8.3576    0.3960   19.7421 N   0  0  0  0  0  0  0  0  0  0  0  0
    4.7216   -3.2527   20.5915 H   0  0  0  0  0  0  0  0  0  0  0  0
    5.9410   -3.8394   19.6727 H   0  0  0  0  0  0  0  0  0  0  0  0
    5.2701   -2.4942   18.9835 H   0  0  0  0  0  0  0  0  0  0  0  0
    6.8989   -2.4625   21.1113 H   0  0  0  0  0  0  0  0  0  0  0  0
    5.0314   -2.1981   22.4511 H   0  0  0  0  0  0  0  0  0  0  0  0
    5.0711   -0.1356   22.6641 H   0  0  0  0  0  0  0  0  0  0  0  0
    5.1313   -2.5214   24.2027 H   0  0  0  0  0  0  0  0  0  0  0  0
    2.9347   -0.3588   27.1937 H   0  0  0  0  0  0  0  0  0  0  0  0
    2.0066   -1.9678   28.8167 H   0  0  0  0  0  0  0  0  0  0  0  0
    2.1090   -4.8891   29.5681 H   0  0  0  0  0  0  0  0  0  0  0  0
    3.7840   -6.8519   28.6444 H   0  0  0  0  0  0  0  0  0  0  0  0
    5.3285   -5.7753   26.9993 H   0  0  0  0  0  0  0  0  0  0  0  0
    5.7736   -3.3231   25.8223 H   0  0  0  0  0  0  0  0  0  0  0  0
    7.9509    0.9473   16.7265 H   0  0  0  0  0  0  0  0  0  0  0  0
    9.0896    2.2747   18.8964 H   0  0  0  0  0  0  0  0  0  0  0  0
    9.0453    0.3279   20.4667 H   0  0  0  0  0  0  0  0  0  0  0  0
  1  2  1  0
  2  3  1  0
  3  4  1  0
  4  5  1  0
  5  6  2  0
  5  7  1  0
  7  8  2  0
  8  9  1  0
  9 10  2  0
 10 11  1  0
 11 12  2  0
 12 13  1  0
 13 14  1  0
 14 15  2  0
  2 16  1  0
 16 17  2  0
 17 18  1  0
 18 19  2  0
 19 20  1  0
 15  7  1  0
 20 16  1  0
 14 10  1  0
  1 21  1  0
  1 22  1  0
  1 23  1  0
  2 24  1  0
  3 25  1  0
  3 26  1  0
  4 27  1  0
  8 28  1  0
  9 29  1  0
 11 30  1  0
 12 31  1  0
 13 32  1  0
 15 33  1  0
 18 34  1  0
 19 35  1  0
 20 36  1  0
M  END
>  <Energy>  (1380) 
303.26167212488588

>  <compound_id>  (1380) 
47245

>  <target_id>  (1380) 
1

>  <reference_id>  (1380) 
40

>  <inspiration_ids>  (1380) 
[40, 80]

>  <energy_score>  (1380) 
257.20011538592564

>  <distance_score>  (1380) 
5.784034218998098

>  <path>  (1380) 
/opt/xchem-fragalysis-2/maxwin/BulkDock/SCRATCH/511023/C47245-P40/C47245-P40.minimised.mol

>  <scratch_subdir>  (1380) 
/opt/xchem-fragalysis-2/maxwin/BulkDock/SCRATCH/511023/C47245-P40

>  <fragmenstein_runtime>  (1380) 
9.522831439971924

>  <fragmenstein_outcome>  (1380) 
too moved

>  <fragmenstein_mode>  (1380) 
expansion

>  <fragmenstein_error>  (1380) 


$$$$
C47245-P80
     RDKit          3D

 36 38  0  0  0  0  0  0  0  0999 V2000
    5.5701   -5.9818   17.2692 C   0  0  0  0  0  0  0  0  0  0  0  0
    6.7275   -5.1238   17.9440 C   0  0  0  0  0  0  0  0  0  0  0  0
    5.6765   -4.1758   19.6359 C   0  0  0  0  0  0  0  0  0  0  0  0
    5.8144   -2.7362   21.1225 N   0  0  0  0  0  0  0  0  0  0  0  0
    4.7758   -2.3856   22.8063 C   0  0  0  0  0  0  0  0  0  0  0  0
    3.7508   -3.0868   23.0331 O   0  0  0  0  0  0  0  0  0  0  0  0
    5.0600   -1.3741   24.2159 C   0  0  0  0  0  0  0  0  0  0  0  0
    5.8475   -1.6429   25.4104 C   0  0  0  0  0  0  0  0  0  0  0  0
    5.6989   -1.3554   26.8576 C   0  0  0  0  0  0  0  0  0  0  0  0
    4.4253   -1.2344   27.3464 C   0  0  0  0  0  0  0  0  0  0  0  0
    3.8025   -1.2318   28.6176 C   0  0  0  0  0  0  0  0  0  0  0  0
    2.4549   -1.3936   28.3973 C   0  0  0  0  0  0  0  0  0  0  0  0
    2.2775   -1.4855   27.0429 N   0  0  0  0  0  0  0  0  0  0  0  0
    3.4633   -1.2987   26.3740 C   0  0  0  0  0  0  0  0  0  0  0  0
    3.8121   -1.3671   24.9610 C   0  0  0  0  0  0  0  0  0  0  0  0
    7.7541   -4.2749   16.1114 C   0  0  0  0  0  0  0  0  0  0  0  0
    6.7099   -3.3256   15.1792 N   0  0  0  0  0  0  0  0  0  0  0  0
    7.4119   -2.4701   14.1904 C   0  0  0  0  0  0  0  0  0  0  0  0
    8.6452   -2.3385   14.7369 C   0  0  0  0  0  0  0  0  0  0  0  0
    7.9395   -2.5107   15.8437 N   0  0  0  0  0  0  0  0  0  0  0  0
    4.7747   -5.3412   16.9178 H   0  0  0  0  0  0  0  0  0  0  0  0
    6.0313   -6.4801   16.4265 H   0  0  0  0  0  0  0  0  0  0  0  0
    5.1642   -6.7054   17.9725 H   0  0  0  0  0  0  0  0  0  0  0  0
    7.0775   -6.0963   18.3291 H   0  0  0  0  0  0  0  0  0  0  0  0
    4.7180   -4.6759   19.6159 H   0  0  0  0  0  0  0  0  0  0  0  0
    6.5852   -4.7242   19.9286 H   0  0  0  0  0  0  0  0  0  0  0  0
    6.5296   -2.0465   21.0346 H   0  0  0  0  0  0  0  0  0  0  0  0
    6.8331   -2.0976   25.4149 H   0  0  0  0  0  0  0  0  0  0  0  0
    6.5428   -1.5262   27.5194 H   0  0  0  0  0  0  0  0  0  0  0  0
    4.2908   -1.2042   29.5816 H   0  0  0  0  0  0  0  0  0  0  0  0
    1.6212   -1.5014   29.0765 H   0  0  0  0  0  0  0  0  0  0  0  0
    1.4218   -1.7498   26.5846 H   0  0  0  0  0  0  0  0  0  0  0  0
    2.9577   -1.6847   24.3926 H   0  0  0  0  0  0  0  0  0  0  0  0
    6.9150   -1.9824   13.3614 H   0  0  0  0  0  0  0  0  0  0  0  0
    9.5249   -1.7226   14.6428 H   0  0  0  0  0  0  0  0  0  0  0  0
    7.1129   -1.9605   16.0396 H   0  0  0  0  0  0  0  0  0  0  0  0
  1  2  1  0
  2  3  1  0
  3  4  1  0
  4  5  1  0
  5  6  2  0
  5  7  1  0
  7  8  2  0
  8  9  1  0
  9 10  2  0
 10 11  1  0
 11 12  2  0
 12 13  1  0
 13 14  1  0
 14 15  2  0
  2 16  1  0
 16 17  2  0
 17 18  1  0
 18 19  2  0
 19 20  1  0
 15  7  1  0
 20 16  1  0
 14 10  1  0
  1 21  1  0
  1 22  1  0
  1 23  1  0
  2 24  1  0
  3 25  1  0
  3 26  1  0
  4 27  1  0
  8 28  1  0
  9 29  1  0
 11 30  1  0
 12 31  1  0
 13 32  1  0
 15 33  1  0
 18 34  1  0
 19 35  1  0
 20 36  1  0
M  END
>  <Energy>  (1381) 
947.28858950715187

>  <compound_id>  (1381) 
47245

>  <target_id>  (1381) 
1

>  <reference_id>  (1381) 
80

>  <inspiration_ids>  (1381) 
[40, 80]

>  <energy_score>  (1381) 
901.227032768182

>  <distance_score>  (1381) 
6.60901406178299

>  <path>  (1381) 
/opt/xchem-fragalysis-2/maxwin/BulkDock/SCRATCH/511023/C47245-P80/C47245-P80.minimised.mol

>  <scratch_subdir>  (1381) 
/opt/xchem-fragalysis-2/maxwin/BulkDock/SCRATCH/511023/C47245-P80

>  <fragmenstein_runtime>  (1381) 
7.634038209915161

>  <fragmenstein_outcome>  (1381) 
too moved

>  <fragmenstein_mode>  (1381) 
expansion

>  <fragmenstein_error>  (1381) 


$$$$
C47246-P40
     RDKit          3D

 35 37  0  0  0  0  0  0  0  0999 V2000
    4.9612    3.3745   24.8811 C   0  0  0  0  0  0  0  0  0  0  0  0
    4.2466    2.1816   25.2643 N   0  0  0  0  0  0  0  0  0  0  0  0
    3.9061    2.1454   23.5895 C   0  0  0  0  0  0  0  0  0  0  0  0
    4.8841    1.3395   22.3559 C   0  0  0  0  0  0  0  0  0  0  0  0
    5.9206    2.1305   21.4941 N   0  0  0  0  0  0  0  0  0  0  0  0
    7.1811    1.6096   20.2474 C   0  0  0  0  0  0  0  0  0  0  0  0
    6.4528    0.4307   20.0521 C   0  0  0  0  0  0  0  0  0  0  0  0
    4.7927    0.6610   21.0386 N   0  0  0  0  0  0  0  0  0  0  0  0
    4.7500    0.8614   25.7168 C   0  0  0  0  0  0  0  0  0  0  0  0
    5.8509    0.4493   25.7825 O   0  0  0  0  0  0  0  0  0  0  0  0
    3.4857    0.2657   26.1527 N   0  0  0  0  0  0  0  0  0  0  0  0
    3.2233   -0.9218   26.8583 C   0  0  0  0  0  0  0  0  0  0  0  0
    2.0326   -0.9705   27.6025 C   0  0  0  0  0  0  0  0  0  0  0  0
    1.6296   -2.1195   28.2949 C   0  0  0  0  0  0  0  0  0  0  0  0
    2.4417   -3.2475   28.1771 C   0  0  0  0  0  0  0  0  0  0  0  0
    2.2727   -4.5140   28.6853 N   0  0  0  0  0  0  0  0  0  0  0  0
    3.2901   -5.3296   28.2717 C   0  0  0  0  0  0  0  0  0  0  0  0
    4.1618   -4.5638   27.5291 C   0  0  0  0  0  0  0  0  0  0  0  0
    3.6404   -3.2395   27.4630 C   0  0  0  0  0  0  0  0  0  0  0  0
    4.0672   -2.0391   26.8395 C   0  0  0  0  0  0  0  0  0  0  0  0
    5.0432    3.8638   25.8690 H   0  0  0  0  0  0  0  0  0  0  0  0
    4.4521    4.1970   24.3651 H   0  0  0  0  0  0  0  0  0  0  0  0
    6.0234    3.2031   24.7379 H   0  0  0  0  0  0  0  0  0  0  0  0
    3.6333    3.1271   23.1700 H   0  0  0  0  0  0  0  0  0  0  0  0
    2.9078    1.7364   23.6589 H   0  0  0  0  0  0  0  0  0  0  0  0
    7.6848    2.3728   19.6560 H   0  0  0  0  0  0  0  0  0  0  0  0
    6.8089   -0.5871   20.2070 H   0  0  0  0  0  0  0  0  0  0  0  0
    4.0170    1.1233   20.6293 H   0  0  0  0  0  0  0  0  0  0  0  0
    2.7444    0.9313   26.0179 H   0  0  0  0  0  0  0  0  0  0  0  0
    1.3834   -0.0981   27.6432 H   0  0  0  0  0  0  0  0  0  0  0  0
    0.6973   -2.1326   28.8495 H   0  0  0  0  0  0  0  0  0  0  0  0
    1.4989   -4.7831   29.2757 H   0  0  0  0  0  0  0  0  0  0  0  0
    3.3316   -6.3700   28.5571 H   0  0  0  0  0  0  0  0  0  0  0  0
    5.0824   -4.9066   27.0715 H   0  0  0  0  0  0  0  0  0  0  0  0
    4.9992   -2.0189   26.2786 H   0  0  0  0  0  0  0  0  0  0  0  0
  1  2  1  0
  2  3  1  0
  3  4  1  0
  4  5  2  0
  5  6  1  0
  6  7  2  0
  7  8  1  0
  2  9  1  0
  9 10  2  0
  9 11  1  0
 11 12  1  0
 12 13  2  0
 13 14  1  0
 14 15  2  0
 15 16  1  0
 16 17  1  0
 17 18  2  0
 18 19  1  0
 19 20  2  0
  8  4  1  0
 20 12  1  0
 19 15  1  0
  1 21  1  0
  1 22  1  0
  1 23  1  0
  3 24  1  0
  3 25  1  0
  6 26  1  0
  7 27  1  0
  8 28  1  0
 11 29  1  0
 13 30  1  0
 14 31  1  0
 16 32  1  0
 17 33  1  0
 18 34  1  0
 20 35  1  0
M  END
>  <Energy>  (1382) 
339.65713443987488

>  <compound_id>  (1382) 
47246

>  <target_id>  (1382) 
1

>  <reference_id>  (1382) 
40

>  <inspiration_ids>  (1382) 
[40, 80]

>  <energy_score>  (1382) 
343.2422121206882

>  <distance_score>  (1382) 
7.558579589760832

>  <path>  (1382) 
/opt/xchem-fragalysis-2/maxwin/BulkDock/SCRATCH/511023/C47246-P40/C47246-P40.minimised.mol

>  <scratch_subdir>  (1382) 
/opt/xchem-fragalysis-2/maxwin/BulkDock/SCRATCH/511023/C47246-P40

>  <fragmenstein_runtime>  (1382) 
12.708041906356812

>  <fragmenstein_outcome>  (1382) 
too moved

>  <fragmenstein_mode>  (1382) 
expansion

>  <fragmenstein_error>  (1382) 


$$$$
C47246-P80
     RDKit          3D

 35 37  0  0  0  0  0  0  0  0999 V2000
    4.2710   -0.0928   25.1715 C   0  0  0  0  0  0  0  0  0  0  0  0
    3.6238   -1.1231   25.8069 N   0  0  0  0  0  0  0  0  0  0  0  0
    4.2903   -2.0329   24.4494 C   0  0  0  0  0  0  0  0  0  0  0  0
    4.9561   -1.5378   22.8796 C   0  0  0  0  0  0  0  0  0  0  0  0
    4.6650   -0.4232   22.1607 N   0  0  0  0  0  0  0  0  0  0  0  0
    5.5754    0.0574   21.3109 C   0  0  0  0  0  0  0  0  0  0  0  0
    6.6107   -0.9271   20.9875 C   0  0  0  0  0  0  0  0  0  0  0  0
    5.6061   -2.0774   21.6495 N   0  0  0  0  0  0  0  0  0  0  0  0
    3.9231   -1.7923   27.0695 C   0  0  0  0  0  0  0  0  0  0  0  0
    4.8396   -1.6665   27.7930 O   0  0  0  0  0  0  0  0  0  0  0  0
    2.7051   -2.5779   27.2197 N   0  0  0  0  0  0  0  0  0  0  0  0
    2.2303   -3.3277   28.2994 C   0  0  0  0  0  0  0  0  0  0  0  0
    0.9022   -3.7268   28.3789 C   0  0  0  0  0  0  0  0  0  0  0  0
    0.3980   -4.3848   29.5065 C   0  0  0  0  0  0  0  0  0  0  0  0
    1.2597   -4.5764   30.5849 C   0  0  0  0  0  0  0  0  0  0  0  0
    1.0542   -5.1529   31.8130 N   0  0  0  0  0  0  0  0  0  0  0  0
    2.1734   -5.0099   32.5899 C   0  0  0  0  0  0  0  0  0  0  0  0
    3.1486   -4.4181   31.8299 C   0  0  0  0  0  0  0  0  0  0  0  0
    2.5774   -4.1349   30.5677 C   0  0  0  0  0  0  0  0  0  0  0  0
    3.0594   -3.5055   29.4149 C   0  0  0  0  0  0  0  0  0  0  0  0
    3.5055    0.6348   24.8923 H   0  0  0  0  0  0  0  0  0  0  0  0
    5.0998   -0.2332   24.5461 H   0  0  0  0  0  0  0  0  0  0  0  0
    4.7484    0.4211   26.0255 H   0  0  0  0  0  0  0  0  0  0  0  0
    5.1887   -2.4244   24.8963 H   0  0  0  0  0  0  0  0  0  0  0  0
    3.5427   -2.7994   24.2674 H   0  0  0  0  0  0  0  0  0  0  0  0
    6.0548    0.9577   21.7516 H   0  0  0  0  0  0  0  0  0  0  0  0
    7.2777   -0.9776   20.1442 H   0  0  0  0  0  0  0  0  0  0  0  0
    5.5960   -2.9629   21.1782 H   0  0  0  0  0  0  0  0  0  0  0  0
    2.0881   -2.3878   26.4334 H   0  0  0  0  0  0  0  0  0  0  0  0
    0.2063   -3.4755   27.5949 H   0  0  0  0  0  0  0  0  0  0  0  0
   -0.6362   -4.6857   29.5470 H   0  0  0  0  0  0  0  0  0  0  0  0
    0.2051   -5.6077   32.1158 H   0  0  0  0  0  0  0  0  0  0  0  0
    2.1850   -5.3790   33.6068 H   0  0  0  0  0  0  0  0  0  0  0  0
    4.1530   -4.1841   32.1567 H   0  0  0  0  0  0  0  0  0  0  0  0
    4.0805   -3.1377   29.4221 H   0  0  0  0  0  0  0  0  0  0  0  0
  1  2  1  0
  2  3  1  0
  3  4  1  0
  4  5  2  0
  5  6  1  0
  6  7  2  0
  7  8  1  0
  2  9  1  0
  9 10  2  0
  9 11  1  0
 11 12  1  0
 12 13  2  0
 13 14  1  0
 14 15  2  0
 15 16  1  0
 16 17  1  0
 17 18  2  0
 18 19  1  0
 19 20  2  0
  8  4  1  0
 20 12  1  0
 19 15  1  0
  1 21  1  0
  1 22  1  0
  1 23  1  0
  3 24  1  0
  3 25  1  0
  6 26  1  0
  7 27  1  0
  8 28  1  0
 11 29  1  0
 13 30  1  0
 14 31  1  0
 16 32  1  0
 17 33  1  0
 18 34  1  0
 20 35  1  0
M  END
>  <Energy>  (1383) 
208.49746643738922

>  <compound_id>  (1383) 
47246

>  <target_id>  (1383) 
1

>  <reference_id>  (1383) 
80

>  <inspiration_ids>  (1383) 
[40, 80]

>  <energy_score>  (1383) 
212.08254411819877

>  <distance_score>  (1383) 
6.855958495352934

>  <path>  (1383) 
/opt/xchem-fragalysis-2/maxwin/BulkDock/SCRATCH/511023/C47246-P80/C47246-P80.minimised.mol

>  <scratch_subdir>  (1383) 
/opt/xchem-fragalysis-2/maxwin/BulkDock/SCRATCH/511023/C47246-P80

>  <fragmenstein_runtime>  (1383) 
12.475179672241211

>  <fragmenstein_outcome>  (1383) 
too moved

>  <fragmenstein_mode>  (1383) 
expansion

>  <fragmenstein_error>  (1383) 


$$$$
C47247-P40
     RDKit          3D

 45 48  0  0  0  0  0  0  0  0999 V2000
    7.7024   -4.1263   21.1386 C   0  0  0  0  0  0  0  0  0  0  0  0
    6.9273   -3.5020   22.1261 N   0  0  0  0  0  0  0  0  0  0  0  0
    6.3774   -4.8198   23.4826 C   0  0  0  0  0  0  0  0  0  0  0  0
    5.4639   -5.4825   23.5265 O   0  0  0  0  0  0  0  0  0  0  0  0
    7.3460   -4.9411   24.9716 N   0  0  0  0  0  0  0  0  0  0  0  0
    7.1329   -5.6126   26.1893 C   0  0  0  0  0  0  0  0  0  0  0  0
    7.6082   -5.0008   27.3493 C   0  0  0  0  0  0  0  0  0  0  0  0
    6.8094   -4.9446   28.5091 C   0  0  0  0  0  0  0  0  0  0  0  0
    5.5183   -5.4869   28.4383 C   0  0  0  0  0  0  0  0  0  0  0  0
    4.4437   -5.3626   29.2882 N   0  0  0  0  0  0  0  0  0  0  0  0
    3.3437   -5.9967   28.7642 C   0  0  0  0  0  0  0  0  0  0  0  0
    3.7263   -6.5838   27.5811 C   0  0  0  0  0  0  0  0  0  0  0  0
    5.0859   -6.2334   27.3483 C   0  0  0  0  0  0  0  0  0  0  0  0
    5.9536   -6.3858   26.2481 C   0  0  0  0  0  0  0  0  0  0  0  0
    6.1694   -2.9687   20.3663 C   0  0  0  0  0  0  0  0  0  0  0  0
    6.8909   -0.9613   20.0023 C   0  0  0  0  0  0  0  0  0  0  0  0
    8.0362    0.0379   19.8712 C   0  0  0  0  0  0  0  0  0  0  0  0
    8.3971    1.4771   19.2913 C   0  0  0  0  0  0  0  0  0  0  0  0
    8.3742    1.6717   17.9776 C   0  0  0  0  0  0  0  0  0  0  0  0
    7.7289    0.5996   17.5304 C   0  0  0  0  0  0  0  0  0  0  0  0
    6.8082   -0.2561   18.5692 C   0  0  0  0  0  0  0  0  0  0  0  0
    7.5025   -3.9154   18.7984 C   0  0  0  0  0  0  0  0  0  0  0  0
    8.6146   -2.1802   19.0119 N   0  0  0  0  0  0  0  0  0  0  0  0
    9.0298   -1.4916   17.0719 C   0  0  0  0  0  0  0  0  0  0  0  0
    8.2105   -2.3798   15.8913 C   0  0  0  0  0  0  0  0  0  0  0  0
    8.1044   -4.0346   16.7425 N   0  0  0  0  0  0  0  0  0  0  0  0
    7.4877   -4.9587   21.7631 H   0  0  0  0  0  0  0  0  0  0  0  0
    8.5444   -3.9621   20.4955 H   0  0  0  0  0  0  0  0  0  0  0  0
    7.1279   -4.7174   20.3906 H   0  0  0  0  0  0  0  0  0  0  0  0
    8.0859   -4.2706   24.9037 H   0  0  0  0  0  0  0  0  0  0  0  0
    8.5044   -4.3849   27.3111 H   0  0  0  0  0  0  0  0  0  0  0  0
    7.1334   -4.3604   29.3647 H   0  0  0  0  0  0  0  0  0  0  0  0
    4.4545   -4.8050   30.1313 H   0  0  0  0  0  0  0  0  0  0  0  0
    2.3894   -5.9455   29.2688 H   0  0  0  0  0  0  0  0  0  0  0  0
    3.0952   -7.1315   26.8962 H   0  0  0  0  0  0  0  0  0  0  0  0
    5.5586   -6.8587   25.3552 H   0  0  0  0  0  0  0  0  0  0  0  0
    5.1743   -3.1778   20.0846 H   0  0  0  0  0  0  0  0  0  0  0  0
    8.9829    0.0376   20.3624 H   0  0  0  0  0  0  0  0  0  0  0  0
    9.0192    2.1445   19.8882 H   0  0  0  0  0  0  0  0  0  0  0  0
    8.8215    2.4657   17.4138 H   0  0  0  0  0  0  0  0  0  0  0  0
    7.5533    0.4390   16.4627 H   0  0  0  0  0  0  0  0  0  0  0  0
    6.2263    0.6162   18.8840 H   0  0  0  0  0  0  0  0  0  0  0  0
    9.6423   -0.6112   16.8038 H   0  0  0  0  0  0  0  0  0  0  0  0
    8.3661   -2.4892   14.8273 H   0  0  0  0  0  0  0  0  0  0  0  0
    7.8657   -4.8698   16.1673 H   0  0  0  0  0  0  0  0  0  0  0  0
  1  2  1  0
  2  3  1  0
  3  4  2  0
  3  5  1  0
  5  6  1  0
  6  7  2  0
  7  8  1  0
  8  9  2  0
  9 10  1  0
 10 11  1  0
 11 12  2  0
 12 13  1  0
 13 14  2  0
  2 15  1  0
 15 16  1  0
 16 17  2  0
 17 18  1  0
 18 19  2  0
 19 20  1  0
 20 21  2  0
 15 22  1  0
 22 23  2  0
 23 24  1  0
 24 25  2  0
 25 26  1  0
 14  6  1  0
 21 16  1  0
 26 22  1  0
 13  9  1  0
  1 27  1  0
  1 28  1  0
  1 29  1  0
  5 30  1  0
  7 31  1  0
  8 32  1  0
 10 33  1  0
 11 34  1  0
 12 35  1  0
 14 36  1  0
 15 37  1  0
 17 38  1  0
 18 39  1  0
 19 40  1  0
 20 41  1  0
 21 42  1  0
 24 43  1  0
 25 44  1  0
 26 45  1  0
M  END
>  <Energy>  (1384) 
1791.0359789900938

>  <compound_id>  (1384) 
47247

>  <target_id>  (1384) 
1

>  <reference_id>  (1384) 
40

>  <inspiration_ids>  (1384) 
[40, 80]

>  <energy_score>  (1384) 
1743.521531713838

>  <distance_score>  (1384) 
6.988988602316714

>  <path>  (1384) 
/opt/xchem-fragalysis-2/maxwin/BulkDock/SCRATCH/511023/C47247-P40/C47247-P40.minimised.mol

>  <scratch_subdir>  (1384) 
/opt/xchem-fragalysis-2/maxwin/BulkDock/SCRATCH/511023/C47247-P40

>  <fragmenstein_runtime>  (1384) 
15.202303647994995

>  <fragmenstein_outcome>  (1384) 
too moved

>  <fragmenstein_mode>  (1384) 
expansion

>  <fragmenstein_error>  (1384) 


$$$$
C47247-P80
     RDKit          3D

 45 48  0  0  0  0  0  0  0  0999 V2000
    4.8137   -1.3459   22.9093 C   0  0  0  0  0  0  0  0  0  0  0  0
    5.2614   -0.1980   23.6695 N   0  0  0  0  0  0  0  0  0  0  0  0
    4.0524    0.2553   24.7978 C   0  0  0  0  0  0  0  0  0  0  0  0
    3.1449    1.0412   24.6899 O   0  0  0  0  0  0  0  0  0  0  0  0
    4.4004   -0.6894   25.9178 N   0  0  0  0  0  0  0  0  0  0  0  0
    3.7161   -0.9927   27.1135 C   0  0  0  0  0  0  0  0  0  0  0  0
    2.5263   -0.3548   27.4600 C   0  0  0  0  0  0  0  0  0  0  0  0
    1.6855   -0.8376   28.4760 C   0  0  0  0  0  0  0  0  0  0  0  0
    2.1008   -1.9716   29.1744 C   0  0  0  0  0  0  0  0  0  0  0  0
    1.4668   -2.6957   30.1566 N   0  0  0  0  0  0  0  0  0  0  0  0
    2.2747   -3.7124   30.5914 C   0  0  0  0  0  0  0  0  0  0  0  0
    3.4563   -3.6301   29.8926 C   0  0  0  0  0  0  0  0  0  0  0  0
    3.3369   -2.5695   28.9480 C   0  0  0  0  0  0  0  0  0  0  0  0
    4.1563   -2.0607   27.9101 C   0  0  0  0  0  0  0  0  0  0  0  0
    5.7043    0.5903   21.7246 C   0  0  0  0  0  0  0  0  0  0  0  0
    7.0645    2.1143   21.5655 C   0  0  0  0  0  0  0  0  0  0  0  0
    6.7095    3.6261   21.6604 C   0  0  0  0  0  0  0  0  0  0  0  0
    7.5438    4.7011   22.1328 C   0  0  0  0  0  0  0  0  0  0  0  0
    8.8493    4.5035   22.5727 C   0  0  0  0  0  0  0  0  0  0  0  0
    9.3895    3.2270   22.5421 C   0  0  0  0  0  0  0  0  0  0  0  0
    8.6139    2.0988   22.0580 C   0  0  0  0  0  0  0  0  0  0  0  0
    6.9149   -0.2524   20.2286 C   0  0  0  0  0  0  0  0  0  0  0  0
    8.1235   -0.5521   19.6813 N   0  0  0  0  0  0  0  0  0  0  0  0
    8.3071    0.0464   17.9663 C   0  0  0  0  0  0  0  0  0  0  0  0
    7.3945   -0.3841   17.1807 C   0  0  0  0  0  0  0  0  0  0  0  0
    6.5729   -0.6373   18.6149 N   0  0  0  0  0  0  0  0  0  0  0  0
    5.3404   -1.6905   22.0248 H   0  0  0  0  0  0  0  0  0  0  0  0
    3.9561   -1.9064   23.3472 H   0  0  0  0  0  0  0  0  0  0  0  0
    5.3806   -2.0127   23.5726 H   0  0  0  0  0  0  0  0  0  0  0  0
    5.1843   -1.2634   25.6369 H   0  0  0  0  0  0  0  0  0  0  0  0
    2.1984    0.5173   26.9035 H   0  0  0  0  0  0  0  0  0  0  0  0
    0.7347   -0.3562   28.6766 H   0  0  0  0  0  0  0  0  0  0  0  0
    0.5441   -2.4879   30.5117 H   0  0  0  0  0  0  0  0  0  0  0  0
    1.9489   -4.3844   31.3749 H   0  0  0  0  0  0  0  0  0  0  0  0
    4.3112   -4.2768   30.0282 H   0  0  0  0  0  0  0  0  0  0  0  0
    5.1065   -2.5367   27.6992 H   0  0  0  0  0  0  0  0  0  0  0  0
    4.6632    0.6097   21.4577 H   0  0  0  0  0  0  0  0  0  0  0  0
    5.7381    4.0676   21.4362 H   0  0  0  0  0  0  0  0  0  0  0  0
    7.1218    5.7054   22.1713 H   0  0  0  0  0  0  0  0  0  0  0  0
    9.4361    5.3361   22.9502 H   0  0  0  0  0  0  0  0  0  0  0  0
   10.3882    3.0484   22.9378 H   0  0  0  0  0  0  0  0  0  0  0  0
    9.0998    1.2098   22.4795 H   0  0  0  0  0  0  0  0  0  0  0  0
    9.2061    0.5454   17.6088 H   0  0  0  0  0  0  0  0  0  0  0  0
    6.8979   -0.5966   16.2455 H   0  0  0  0  0  0  0  0  0  0  0  0
    5.6917   -1.0810   18.4781 H   0  0  0  0  0  0  0  0  0  0  0  0
  1  2  1  0
  2  3  1  0
  3  4  2  0
  3  5  1  0
  5  6  1  0
  6  7  2  0
  7  8  1  0
  8  9  2  0
  9 10  1  0
 10 11  1  0
 11 12  2  0
 12 13  1  0
 13 14  2  0
  2 15  1  0
 15 16  1  0
 16 17  2  0
 17 18  1  0
 18 19  2  0
 19 20  1  0
 20 21  2  0
 15 22  1  0
 22 23  2  0
 23 24  1  0
 24 25  2  0
 25 26  1  0
 14  6  1  0
 21 16  1  0
 26 22  1  0
 13  9  1  0
  1 27  1  0
  1 28  1  0
  1 29  1  0
  5 30  1  0
  7 31  1  0
  8 32  1  0
 10 33  1  0
 11 34  1  0
 12 35  1  0
 14 36  1  0
 15 37  1  0
 17 38  1  0
 18 39  1  0
 19 40  1  0
 20 41  1  0
 21 42  1  0
 24 43  1  0
 25 44  1  0
 26 45  1  0
M  END
>  <Energy>  (1385) 
671.87486092041229

>  <compound_id>  (1385) 
47247

>  <target_id>  (1385) 
1

>  <reference_id>  (1385) 
80

>  <inspiration_ids>  (1385) 
[40, 80]

>  <energy_score>  (1385) 
624.3604136441363

>  <distance_score>  (1385) 
6.710442668334884

>  <path>  (1385) 
/opt/xchem-fragalysis-2/maxwin/BulkDock/SCRATCH/511023/C47247-P80/C47247-P80.minimised.mol

>  <scratch_subdir>  (1385) 
/opt/xchem-fragalysis-2/maxwin/BulkDock/SCRATCH/511023/C47247-P80

>  <fragmenstein_runtime>  (1385) 
18.394659519195557

>  <fragmenstein_outcome>  (1385) 
too moved

>  <fragmenstein_mode>  (1385) 
expansion

>  <fragmenstein_error>  (1385) 


$$$$
C47248-P40
     RDKit          3D

 38 40  0  0  0  0  0  0  0  0999 V2000
    4.0357   -0.5048   26.3972 C   0  0  0  0  0  0  0  0  0  0  0  0
    4.4793   -1.9239   26.3358 C   0  0  0  0  0  0  0  0  0  0  0  0
    4.4034   -2.8390   27.3673 C   0  0  0  0  0  0  0  0  0  0  0  0
    4.9649   -4.0067   26.9395 N   0  0  0  0  0  0  0  0  0  0  0  0
    5.3787   -3.8929   25.6328 C   0  0  0  0  0  0  0  0  0  0  0  0
    5.9902   -4.8551   24.8149 C   0  0  0  0  0  0  0  0  0  0  0  0
    6.3508   -4.4921   23.4428 C   0  0  0  0  0  0  0  0  0  0  0  0
    6.0670   -3.0961   22.6918 C   0  0  0  0  0  0  0  0  0  0  0  0
    5.6316   -2.4252   20.9703 N   0  0  0  0  0  0  0  0  0  0  0  0
    5.4194   -3.2327   19.4258 C   0  0  0  0  0  0  0  0  0  0  0  0
    5.6325   -4.3974   19.2343 O   0  0  0  0  0  0  0  0  0  0  0  0
    4.6113   -2.0385   18.1039 N   0  0  0  0  0  0  0  0  0  0  0  0
    4.0141   -2.3850   16.7119 C   0  0  0  0  0  0  0  0  0  0  0  0
    5.4226   -0.9378   16.7580 C   0  0  0  0  0  0  0  0  0  0  0  0
    6.9265   -0.2892   16.4643 C   0  0  0  0  0  0  0  0  0  0  0  0
    7.6669   -0.6652   15.4284 N   0  0  0  0  0  0  0  0  0  0  0  0
    8.8214    0.0685   15.4605 C   0  0  0  0  0  0  0  0  0  0  0  0
    8.8201    0.9044   16.5467 C   0  0  0  0  0  0  0  0  0  0  0  0
    7.6292    0.6718   17.1840 N   0  0  0  0  0  0  0  0  0  0  0  0
    5.3431   -2.2109   23.8381 C   0  0  0  0  0  0  0  0  0  0  0  0
    5.0812   -2.5926   25.2152 C   0  0  0  0  0  0  0  0  0  0  0  0
    3.0801   -0.4204   26.9250 H   0  0  0  0  0  0  0  0  0  0  0  0
    3.9071   -0.0761   25.3998 H   0  0  0  0  0  0  0  0  0  0  0  0
    4.7779    0.0971   26.9313 H   0  0  0  0  0  0  0  0  0  0  0  0
    4.0272   -2.7384   28.3762 H   0  0  0  0  0  0  0  0  0  0  0  0
    5.0917   -4.8350   27.5013 H   0  0  0  0  0  0  0  0  0  0  0  0
    6.2020   -5.8557   25.1730 H   0  0  0  0  0  0  0  0  0  0  0  0
    6.7360   -5.3412   22.8916 H   0  0  0  0  0  0  0  0  0  0  0  0
    5.4710   -1.4374   20.8503 H   0  0  0  0  0  0  0  0  0  0  0  0
    3.2807   -1.6462   16.3535 H   0  0  0  0  0  0  0  0  0  0  0  0
    4.5218   -2.9971   15.9567 H   0  0  0  0  0  0  0  0  0  0  0  0
    3.3030   -3.1752   17.0120 H   0  0  0  0  0  0  0  0  0  0  0  0
    5.3871   -1.3685   15.6699 H   0  0  0  0  0  0  0  0  0  0  0  0
    4.6777   -0.4115   16.1916 H   0  0  0  0  0  0  0  0  0  0  0  0
    9.5793   -0.0447   14.6942 H   0  0  0  0  0  0  0  0  0  0  0  0
    9.5278    1.6405   16.9027 H   0  0  0  0  0  0  0  0  0  0  0  0
    7.3342    1.1027   18.0504 H   0  0  0  0  0  0  0  0  0  0  0  0
    4.8503   -1.2937   23.5101 H   0  0  0  0  0  0  0  0  0  0  0  0
  1  2  1  0
  2  3  2  0
  3  4  1  0
  4  5  1  0
  5  6  2  0
  6  7  1  0
  7  8  2  0
  8  9  1  0
  9 10  1  0
 10 11  2  0
 10 12  1  0
 12 13  1  0
 12 14  1  0
 14 15  1  0
 15 16  2  0
 16 17  1  0
 17 18  2  0
 18 19  1  0
  8 20  1  0
 20 21  2  0
 21  2  1  0
 21  5  1  0
 19 15  1  0
  1 22  1  0
  1 23  1  0
  1 24  1  0
  3 25  1  0
  4 26  1  0
  6 27  1  0
  7 28  1  0
  9 29  1  0
 13 30  1  0
 13 31  1  0
 13 32  1  0
 14 33  1  0
 14 34  1  0
 17 35  1  0
 18 36  1  0
 19 37  1  0
 20 38  1  0
M  END
>  <Energy>  (1386) 
452.02365863423626

>  <compound_id>  (1386) 
47248

>  <target_id>  (1386) 
1

>  <reference_id>  (1386) 
40

>  <inspiration_ids>  (1386) 
[40, 80]

>  <energy_score>  (1386) 
455.3857758450245

>  <distance_score>  (1386) 
8.547974978343198

>  <path>  (1386) 
/opt/xchem-fragalysis-2/maxwin/BulkDock/SCRATCH/511023/C47248-P40/C47248-P40.minimised.mol

>  <scratch_subdir>  (1386) 
/opt/xchem-fragalysis-2/maxwin/BulkDock/SCRATCH/511023/C47248-P40

>  <fragmenstein_runtime>  (1386) 
9.843259811401367

>  <fragmenstein_outcome>  (1386) 
too moved

>  <fragmenstein_mode>  (1386) 
expansion

>  <fragmenstein_error>  (1386) 


$$$$
C47248-P80
     RDKit          3D

 38 40  0  0  0  0  0  0  0  0999 V2000
    0.9733   -3.6063   27.9041 C   0  0  0  0  0  0  0  0  0  0  0  0
    2.1359   -2.6943   27.8616 C   0  0  0  0  0  0  0  0  0  0  0  0
    2.4490   -1.9912   29.0143 C   0  0  0  0  0  0  0  0  0  0  0  0
    3.6003   -1.3194   28.7961 N   0  0  0  0  0  0  0  0  0  0  0  0
    4.0667   -1.6217   27.5540 C   0  0  0  0  0  0  0  0  0  0  0  0
    5.2913   -1.3750   27.0266 C   0  0  0  0  0  0  0  0  0  0  0  0
    5.4750   -1.8373   25.6869 C   0  0  0  0  0  0  0  0  0  0  0  0
    4.6502   -2.4421   24.6178 C   0  0  0  0  0  0  0  0  0  0  0  0
    4.9697   -1.4599   23.6510 N   0  0  0  0  0  0  0  0  0  0  0  0
    5.1154    0.0941   23.7465 C   0  0  0  0  0  0  0  0  0  0  0  0
    4.8344    0.5738   24.7797 O   0  0  0  0  0  0  0  0  0  0  0  0
    5.9284    1.2349   22.2118 N   0  0  0  0  0  0  0  0  0  0  0  0
    6.2466    3.2388   22.1077 C   0  0  0  0  0  0  0  0  0  0  0  0
    7.7847    1.6501   21.7535 C   0  0  0  0  0  0  0  0  0  0  0  0
    8.9572    2.9166   22.3336 C   0  0  0  0  0  0  0  0  0  0  0  0
   10.2004    2.5426   22.6429 N   0  0  0  0  0  0  0  0  0  0  0  0
   10.9390    3.6724   22.8076 C   0  0  0  0  0  0  0  0  0  0  0  0
   10.1462    4.7752   22.6434 C   0  0  0  0  0  0  0  0  0  0  0  0
    8.8890    4.2953   22.3881 N   0  0  0  0  0  0  0  0  0  0  0  0
    3.4941   -2.6347   25.3861 C   0  0  0  0  0  0  0  0  0  0  0  0
    3.1301   -2.3476   26.8349 C   0  0  0  0  0  0  0  0  0  0  0  0
    0.8688   -4.0426   28.9063 H   0  0  0  0  0  0  0  0  0  0  0  0
    1.0842   -4.4542   27.2387 H   0  0  0  0  0  0  0  0  0  0  0  0
    0.0469   -3.0608   27.7151 H   0  0  0  0  0  0  0  0  0  0  0  0
    1.9546   -1.9504   29.9754 H   0  0  0  0  0  0  0  0  0  0  0  0
    4.0997   -0.7604   29.4723 H   0  0  0  0  0  0  0  0  0  0  0  0
    6.1059   -0.9185   27.5715 H   0  0  0  0  0  0  0  0  0  0  0  0
    6.5449   -1.7999   25.4951 H   0  0  0  0  0  0  0  0  0  0  0  0
    5.3188   -1.7265   22.7563 H   0  0  0  0  0  0  0  0  0  0  0  0
    5.3429    3.9210   22.1655 H   0  0  0  0  0  0  0  0  0  0  0  0
    6.7358    3.5062   21.1709 H   0  0  0  0  0  0  0  0  0  0  0  0
    6.6818    3.7280   23.0029 H   0  0  0  0  0  0  0  0  0  0  0  0
    8.6239    1.2092   22.3797 H   0  0  0  0  0  0  0  0  0  0  0  0
    7.7711    1.5464   20.6928 H   0  0  0  0  0  0  0  0  0  0  0  0
   11.9970    3.6324   23.0328 H   0  0  0  0  0  0  0  0  0  0  0  0
   10.3599    5.8333   22.6937 H   0  0  0  0  0  0  0  0  0  0  0  0
    8.0963    4.8862   22.1913 H   0  0  0  0  0  0  0  0  0  0  0  0
    2.8893   -3.3906   24.9449 H   0  0  0  0  0  0  0  0  0  0  0  0
  1  2  1  0
  2  3  2  0
  3  4  1  0
  4  5  1  0
  5  6  2  0
  6  7  1  0
  7  8  2  0
  8  9  1  0
  9 10  1  0
 10 11  2  0
 10 12  1  0
 12 13  1  0
 12 14  1  0
 14 15  1  0
 15 16  2  0
 16 17  1  0
 17 18  2  0
 18 19  1  0
  8 20  1  0
 20 21  2  0
 21  2  1  0
 21  5  1  0
 19 15  1  0
  1 22  1  0
  1 23  1  0
  1 24  1  0
  3 25  1  0
  4 26  1  0
  6 27  1  0
  7 28  1  0
  9 29  1  0
 13 30  1  0
 13 31  1  0
 13 32  1  0
 14 33  1  0
 14 34  1  0
 17 35  1  0
 18 36  1  0
 19 37  1  0
 20 38  1  0
M  END
>  <Energy>  (1387) 
613.41871899145792

>  <compound_id>  (1387) 
47248

>  <target_id>  (1387) 
1

>  <reference_id>  (1387) 
80

>  <inspiration_ids>  (1387) 
[40, 80]

>  <energy_score>  (1387) 
616.7808362022411

>  <distance_score>  (1387) 
8.745082858464013

>  <path>  (1387) 
/opt/xchem-fragalysis-2/maxwin/BulkDock/SCRATCH/511023/C47248-P80/C47248-P80.minimised.mol

>  <scratch_subdir>  (1387) 
/opt/xchem-fragalysis-2/maxwin/BulkDock/SCRATCH/511023/C47248-P80

>  <fragmenstein_runtime>  (1387) 
12.880961656570435

>  <fragmenstein_outcome>  (1387) 
too moved

>  <fragmenstein_mode>  (1387) 
expansion

>  <fragmenstein_error>  (1387) 


$$$$
C47249-P40
     RDKit          3D

 38 40  0  0  0  0  0  0  0  0999 V2000
    2.9603  -10.8068   23.6557 C   0  0  0  0  0  0  0  0  0  0  0  0
    3.4614   -9.6800   24.5048 C   0  0  0  0  0  0  0  0  0  0  0  0
    4.6350   -9.5823   25.2023 C   0  0  0  0  0  0  0  0  0  0  0  0
    4.7772   -8.2269   25.5859 C   0  0  0  0  0  0  0  0  0  0  0  0
    5.8952   -7.4527   25.8971 C   0  0  0  0  0  0  0  0  0  0  0  0
    5.6858   -6.1245   25.5712 C   0  0  0  0  0  0  0  0  0  0  0  0
    6.2935   -5.7189   24.3709 N   0  0  0  0  0  0  0  0  0  0  0  0
    6.3000   -4.4106   23.6918 C   0  0  0  0  0  0  0  0  0  0  0  0
    5.8712   -3.3894   24.0258 O   0  0  0  0  0  0  0  0  0  0  0  0
    7.2223   -4.9190   22.2224 N   0  0  0  0  0  0  0  0  0  0  0  0
    7.4592   -3.9914   21.0672 C   0  0  0  0  0  0  0  0  0  0  0  0
    8.0407   -4.0083   20.6448 C   0  0  0  0  0  0  0  0  0  0  0  0
    9.4930   -2.7254   20.4406 C   0  0  0  0  0  0  0  0  0  0  0  0
    8.8230   -1.6957   18.9653 N   0  0  0  0  0  0  0  0  0  0  0  0
   10.3634   -1.9193   17.3988 C   0  0  0  0  0  0  0  0  0  0  0  0
   11.8283   -2.5525   18.4444 C   0  0  0  0  0  0  0  0  0  0  0  0
   11.4840   -2.7990   20.3816 N   0  0  0  0  0  0  0  0  0  0  0  0
    4.4800   -5.5174   25.9121 C   0  0  0  0  0  0  0  0  0  0  0  0
    3.3242   -6.3055   25.8764 C   0  0  0  0  0  0  0  0  0  0  0  0
    3.5307   -7.6276   25.4618 C   0  0  0  0  0  0  0  0  0  0  0  0
    2.7675   -8.5293   24.7524 N   0  0  0  0  0  0  0  0  0  0  0  0
    2.5847  -10.4566   22.6932 H   0  0  0  0  0  0  0  0  0  0  0  0
    2.1472  -11.3568   24.1362 H   0  0  0  0  0  0  0  0  0  0  0  0
    3.7678  -11.5180   23.4496 H   0  0  0  0  0  0  0  0  0  0  0  0
    5.3816  -10.3697   25.2361 H   0  0  0  0  0  0  0  0  0  0  0  0
    6.8821   -7.8983   25.8243 H   0  0  0  0  0  0  0  0  0  0  0  0
    6.6832   -6.4123   23.7584 H   0  0  0  0  0  0  0  0  0  0  0  0
    7.0579   -3.1942   21.8725 H   0  0  0  0  0  0  0  0  0  0  0  0
    6.7447   -5.0284   20.3131 H   0  0  0  0  0  0  0  0  0  0  0  0
    6.4326   -3.0752   20.8228 H   0  0  0  0  0  0  0  0  0  0  0  0
    9.0630   -4.6031   20.3383 H   0  0  0  0  0  0  0  0  0  0  0  0
    7.4614   -4.2445   19.4142 H   0  0  0  0  0  0  0  0  0  0  0  0
   10.2421   -1.3573   16.4602 H   0  0  0  0  0  0  0  0  0  0  0  0
   12.8925   -2.6779   18.2814 H   0  0  0  0  0  0  0  0  0  0  0  0
   11.7389   -3.7477   20.5761 H   0  0  0  0  0  0  0  0  0  0  0  0
    4.3726   -4.4355   25.8469 H   0  0  0  0  0  0  0  0  0  0  0  0
    2.3553   -5.8325   25.8566 H   0  0  0  0  0  0  0  0  0  0  0  0
    1.8966   -8.3536   24.2803 H   0  0  0  0  0  0  0  0  0  0  0  0
  1  2  1  0
  2  3  2  0
  3  4  1  0
  4  5  2  0
  5  6  1  0
  6  7  1  0
  7  8  1  0
  8  9  2  0
  8 10  1  0
 10 11  1  0
 10 12  1  0
 12 13  1  0
 13 14  2  0
 14 15  1  0
 15 16  2  0
 16 17  1  0
  6 18  2  0
 18 19  1  0
 19 20  2  0
 20 21  1  0
 21  2  1  0
 20  4  1  0
 17 13  1  0
  1 22  1  0
  1 23  1  0
  1 24  1  0
  3 25  1  0
  5 26  1  0
  7 27  1  0
 11 28  1  0
 11 29  1  0
 11 30  1  0
 12 31  1  0
 12 32  1  0
 15 33  1  0
 16 34  1  0
 17 35  1  0
 18 36  1  0
 19 37  1  0
 21 38  1  0
M  END
>  <Energy>  (1388) 
1574.2600203882885

>  <compound_id>  (1388) 
47249

>  <target_id>  (1388) 
1

>  <reference_id>  (1388) 
40

>  <inspiration_ids>  (1388) 
[40, 80]

>  <energy_score>  (1388) 
1572.346086417778

>  <distance_score>  (1388) 
6.776061592305753

>  <path>  (1388) 
/opt/xchem-fragalysis-2/maxwin/BulkDock/SCRATCH/511023/C47249-P40/C47249-P40.minimised.mol

>  <scratch_subdir>  (1388) 
/opt/xchem-fragalysis-2/maxwin/BulkDock/SCRATCH/511023/C47249-P40

>  <fragmenstein_runtime>  (1388) 
12.008905172348022

>  <fragmenstein_outcome>  (1388) 
too moved

>  <fragmenstein_mode>  (1388) 
expansion

>  <fragmenstein_error>  (1388) 


$$$$
C47249-P80
     RDKit          3D

 38 40  0  0  0  0  0  0  0  0999 V2000
    2.3683   -2.9676   30.7207 C   0  0  0  0  0  0  0  0  0  0  0  0
    3.7524   -3.3533   30.3553 C   0  0  0  0  0  0  0  0  0  0  0  0
    4.6508   -2.7756   29.4833 C   0  0  0  0  0  0  0  0  0  0  0  0
    5.8371   -3.5633   29.4807 C   0  0  0  0  0  0  0  0  0  0  0  0
    7.0562   -3.4979   28.7603 C   0  0  0  0  0  0  0  0  0  0  0  0
    8.0136   -4.5237   28.8541 C   0  0  0  0  0  0  0  0  0  0  0  0
    9.2388   -4.5438   27.9161 N   0  0  0  0  0  0  0  0  0  0  0  0
    9.9647   -3.9037   27.4349 C   0  0  0  0  0  0  0  0  0  0  0  0
    9.4530   -2.4896   27.8043 O   0  0  0  0  0  0  0  0  0  0  0  0
   11.0667   -4.3597   26.6121 N   0  0  0  0  0  0  0  0  0  0  0  0
   12.0276   -3.7391   26.0536 C   0  0  0  0  0  0  0  0  0  0  0  0
   12.3085   -3.3680   25.3998 C   0  0  0  0  0  0  0  0  0  0  0  0
   12.7379   -4.1653   23.9108 C   0  0  0  0  0  0  0  0  0  0  0  0
   13.0787   -5.4253   23.7217 N   0  0  0  0  0  0  0  0  0  0  0  0
   13.4926   -5.5025   22.4095 C   0  0  0  0  0  0  0  0  0  0  0  0
   13.3724   -4.2879   21.7844 C   0  0  0  0  0  0  0  0  0  0  0  0
   12.9096   -3.4399   22.7534 N   0  0  0  0  0  0  0  0  0  0  0  0
    7.7482   -5.5703   29.7786 C   0  0  0  0  0  0  0  0  0  0  0  0
    6.5776   -5.6212   30.5586 C   0  0  0  0  0  0  0  0  0  0  0  0
    5.6231   -4.6213   30.3607 C   0  0  0  0  0  0  0  0  0  0  0  0
    4.3788   -4.4339   30.9246 N   0  0  0  0  0  0  0  0  0  0  0  0
    2.3077   -2.7136   31.7837 H   0  0  0  0  0  0  0  0  0  0  0  0
    1.6749   -3.7907   30.5200 H   0  0  0  0  0  0  0  0  0  0  0  0
    2.0377   -2.0981   30.1437 H   0  0  0  0  0  0  0  0  0  0  0  0
    4.4737   -1.8950   28.8772 H   0  0  0  0  0  0  0  0  0  0  0  0
    7.1830   -2.6879   28.0448 H   0  0  0  0  0  0  0  0  0  0  0  0
    8.8004   -5.4157   28.1266 H   0  0  0  0  0  0  0  0  0  0  0  0
   12.5568   -4.9095   26.1421 H   0  0  0  0  0  0  0  0  0  0  0  0
   11.7806   -2.7678   26.9063 H   0  0  0  0  0  0  0  0  0  0  0  0
   12.8970   -3.7804   27.0338 H   0  0  0  0  0  0  0  0  0  0  0  0
   13.3121   -2.6275   25.6576 H   0  0  0  0  0  0  0  0  0  0  0  0
   11.5942   -2.5106   24.8471 H   0  0  0  0  0  0  0  0  0  0  0  0
   13.8392   -6.4355   21.9855 H   0  0  0  0  0  0  0  0  0  0  0  0
   13.5607   -3.9571   20.7729 H   0  0  0  0  0  0  0  0  0  0  0  0
   12.6808   -2.4586   22.6205 H   0  0  0  0  0  0  0  0  0  0  0  0
    8.4923   -6.3534   29.9306 H   0  0  0  0  0  0  0  0  0  0  0  0
    6.4347   -6.4095   31.2893 H   0  0  0  0  0  0  0  0  0  0  0  0
    3.9704   -5.0184   31.6417 H   0  0  0  0  0  0  0  0  0  0  0  0
  1  2  1  0
  2  3  2  0
  3  4  1  0
  4  5  2  0
  5  6  1  0
  6  7  1  0
  7  8  1  0
  8  9  2  0
  8 10  1  0
 10 11  1  0
 10 12  1  0
 12 13  1  0
 13 14  2  0
 14 15  1  0
 15 16  2  0
 16 17  1  0
  6 18  2  0
 18 19  1  0
 19 20  2  0
 20 21  1  0
 21  2  1  0
 20  4  1  0
 17 13  1  0
  1 22  1  0
  1 23  1  0
  1 24  1  0
  3 25  1  0
  5 26  1  0
  7 27  1  0
 11 28  1  0
 11 29  1  0
 11 30  1  0
 12 31  1  0
 12 32  1  0
 15 33  1  0
 16 34  1  0
 17 35  1  0
 18 36  1  0
 19 37  1  0
 21 38  1  0
M  END
>  <Energy>  (1389) 
993.23557783861713

>  <compound_id>  (1389) 
47249

>  <target_id>  (1389) 
1

>  <reference_id>  (1389) 
80

>  <inspiration_ids>  (1389) 
[40, 80]

>  <energy_score>  (1389) 
991.3216438681234

>  <distance_score>  (1389) 
7.889354378196167

>  <path>  (1389) 
/opt/xchem-fragalysis-2/maxwin/BulkDock/SCRATCH/511023/C47249-P80/C47249-P80.minimised.mol

>  <scratch_subdir>  (1389) 
/opt/xchem-fragalysis-2/maxwin/BulkDock/SCRATCH/511023/C47249-P80

>  <fragmenstein_runtime>  (1389) 
14.256655931472778

>  <fragmenstein_outcome>  (1389) 
too moved

>  <fragmenstein_mode>  (1389) 
expansion

>  <fragmenstein_error>  (1389) 


$$$$
C47251-P107
     RDKit          3D

 34 36  0  0  0  0  0  0  0  0999 V2000
   -3.1506  -18.7115   27.4104 O   0  0  0  0  0  0  0  0  0  0  0  0
   -4.4766  -18.2016   27.4018 C   0  0  0  0  0  0  0  0  0  0  0  0
   -2.9292  -16.9965   26.4234 C   0  0  0  0  0  0  0  0  0  0  0  0
   -2.4286  -15.4440   25.0166 C   0  0  0  0  0  0  0  0  0  0  0  0
   -0.8639  -14.3506   24.1096 N   0  0  0  0  0  0  0  0  0  0  0  0
   -0.2974  -12.5703   22.6072 S   0  0  0  0  0  0  0  0  0  0  0  0
    1.0321  -11.9512   22.9152 O   0  0  0  0  0  0  0  0  0  0  0  0
   -1.3322  -12.5190   21.1541 O   0  0  0  0  0  0  0  0  0  0  0  0
   -0.7558  -10.4725   21.9540 C   0  0  0  0  0  0  0  0  0  0  0  0
   -1.7123  -10.1072   20.9827 C   0  0  0  0  0  0  0  0  0  0  0  0
   -1.4324   -8.8046   20.6284 N   0  0  0  0  0  0  0  0  0  0  0  0
   -0.4462   -8.3568   21.4432 C   0  0  0  0  0  0  0  0  0  0  0  0
   -0.1117   -9.2876   22.3012 N   0  0  0  0  0  0  0  0  0  0  0  0
   -5.5256  -19.8426   26.8886 C   0  0  0  0  0  0  0  0  0  0  0  0
   -6.8515  -20.0167   27.0600 C   0  0  0  0  0  0  0  0  0  0  0  0
   -7.6448  -20.9019   27.5565 N   0  0  0  0  0  0  0  0  0  0  0  0
   -6.9996  -21.9483   27.6067 C   0  0  0  0  0  0  0  0  0  0  0  0
   -7.6764  -22.9297   27.0874 N   0  0  0  0  0  0  0  0  0  0  0  0
   -7.1370  -23.2103   25.9566 C   0  0  0  0  0  0  0  0  0  0  0  0
   -5.7791  -23.3157   25.9293 C   0  0  0  0  0  0  0  0  0  0  0  0
   -5.1959  -22.8074   27.0153 C   0  0  0  0  0  0  0  0  0  0  0  0
   -5.6459  -21.5902   27.4452 N   0  0  0  0  0  0  0  0  0  0  0  0
   -2.4169  -16.5951   27.3130 H   0  0  0  0  0  0  0  0  0  0  0  0
   -2.1964  -17.7424   26.0045 H   0  0  0  0  0  0  0  0  0  0  0  0
   -3.2114  -15.4241   24.2479 H   0  0  0  0  0  0  0  0  0  0  0  0
   -1.9642  -16.2175   24.5451 H   0  0  0  0  0  0  0  0  0  0  0  0
   -0.5955  -13.7062   24.8723 H   0  0  0  0  0  0  0  0  0  0  0  0
   -2.4321  -10.6782   20.4143 H   0  0  0  0  0  0  0  0  0  0  0  0
   -1.8199   -8.3151   19.8358 H   0  0  0  0  0  0  0  0  0  0  0  0
   -0.0145   -7.3693   21.3714 H   0  0  0  0  0  0  0  0  0  0  0  0
   -6.9789  -19.6657   26.1249 H   0  0  0  0  0  0  0  0  0  0  0  0
   -7.4924  -23.7351   25.0262 H   0  0  0  0  0  0  0  0  0  0  0  0
   -5.4732  -24.0551   25.1806 H   0  0  0  0  0  0  0  0  0  0  0  0
   -4.4239  -23.3438   27.5259 H   0  0  0  0  0  0  0  0  0  0  0  0
  1  2  2  0
  2  3  1  0
  3  4  1  0
  4  5  1  0
  5  6  1  0
  6  7  2  0
  6  8  2  0
  6  9  1  0
  9 10  2  0
 10 11  1  0
 11 12  1  0
 12 13  2  0
  2 14  1  0
 14 15  2  0
 15 16  1  0
 16 17  2  0
 17 18  1  0
 18 19  2  0
 19 20  1  0
 20 21  2  0
 21 22  1  0
 13  9  1  0
 22 14  1  0
 22 17  1  0
  3 23  1  0
  3 24  1  0
  4 25  1  0
  4 26  1  0
  5 27  1  0
 10 28  1  0
 11 29  1  0
 12 30  1  0
 15 31  1  0
 19 32  1  0
 20 33  1  0
 21 34  1  0
M  END
>  <Energy>  (1390) 
1329.5080302457061

>  <compound_id>  (1390) 
47251

>  <target_id>  (1390) 
1

>  <reference_id>  (1390) 
107

>  <inspiration_ids>  (1390) 
[107, 80]

>  <energy_score>  (1390) 
1231.3260934376706

>  <distance_score>  (1390) 
11.197448680103706

>  <path>  (1390) 
/opt/xchem-fragalysis-2/maxwin/BulkDock/SCRATCH/511023/C47251-P107/C47251-P107.minimised.mol

>  <scratch_subdir>  (1390) 
/opt/xchem-fragalysis-2/maxwin/BulkDock/SCRATCH/511023/C47251-P107

>  <fragmenstein_runtime>  (1390) 
15.722018480300903

>  <fragmenstein_outcome>  (1390) 
too moved

>  <fragmenstein_mode>  (1390) 
expansion

>  <fragmenstein_error>  (1390) 


$$$$
C47251-P80
     RDKit          3D

 34 36  0  0  0  0  0  0  0  0999 V2000
   -1.9391  -18.1629   18.7619 O   0  0  0  0  0  0  0  0  0  0  0  0
   -2.7242  -17.4169   19.3364 C   0  0  0  0  0  0  0  0  0  0  0  0
   -2.0282  -15.9159   19.9765 C   0  0  0  0  0  0  0  0  0  0  0  0
   -1.9002  -14.5819   21.1227 C   0  0  0  0  0  0  0  0  0  0  0  0
   -0.3810  -13.5587   21.9579 N   0  0  0  0  0  0  0  0  0  0  0  0
   -1.4751  -11.6436   20.9208 S   0  0  0  0  0  0  0  0  0  0  0  0
   -1.5506  -11.8607   19.4795 O   0  0  0  0  0  0  0  0  0  0  0  0
   -2.7680  -11.2527   21.3850 O   0  0  0  0  0  0  0  0  0  0  0  0
   -0.9042   -9.8748   21.1021 C   0  0  0  0  0  0  0  0  0  0  0  0
   -1.3679   -8.8463   20.2628 C   0  0  0  0  0  0  0  0  0  0  0  0
   -0.5856   -7.7605   20.5457 N   0  0  0  0  0  0  0  0  0  0  0  0
    0.1091   -8.0710   21.6717 C   0  0  0  0  0  0  0  0  0  0  0  0
   -0.1765   -9.2911   22.0885 N   0  0  0  0  0  0  0  0  0  0  0  0
   -4.2053  -17.7977   19.1787 C   0  0  0  0  0  0  0  0  0  0  0  0
   -5.1721  -17.2331   18.3435 C   0  0  0  0  0  0  0  0  0  0  0  0
   -6.4535  -17.5160   18.7701 N   0  0  0  0  0  0  0  0  0  0  0  0
   -6.3180  -18.5199   19.6040 C   0  0  0  0  0  0  0  0  0  0  0  0
   -7.2849  -19.2341   20.2567 N   0  0  0  0  0  0  0  0  0  0  0  0
   -6.9791  -20.4742   20.4739 C   0  0  0  0  0  0  0  0  0  0  0  0
   -5.7026  -21.1313   20.0793 C   0  0  0  0  0  0  0  0  0  0  0  0
   -4.7055  -20.3052   19.6991 C   0  0  0  0  0  0  0  0  0  0  0  0
   -4.9776  -18.9478   19.5310 N   0  0  0  0  0  0  0  0  0  0  0  0
   -3.0706  -15.7912   20.2059 H   0  0  0  0  0  0  0  0  0  0  0  0
   -1.7966  -15.4057   19.0435 H   0  0  0  0  0  0  0  0  0  0  0  0
   -2.1092  -14.7055   22.1479 H   0  0  0  0  0  0  0  0  0  0  0  0
   -2.2244  -13.7097   20.6603 H   0  0  0  0  0  0  0  0  0  0  0  0
   -0.3518  -13.4801   23.0156 H   0  0  0  0  0  0  0  0  0  0  0  0
   -2.0329   -8.8806   19.4120 H   0  0  0  0  0  0  0  0  0  0  0  0
   -0.5480   -6.8926   20.0306 H   0  0  0  0  0  0  0  0  0  0  0  0
    0.7893   -7.3843   22.1553 H   0  0  0  0  0  0  0  0  0  0  0  0
   -5.0162  -16.4848   17.5759 H   0  0  0  0  0  0  0  0  0  0  0  0
   -7.7040  -21.1267   20.9877 H   0  0  0  0  0  0  0  0  0  0  0  0
   -5.6351  -22.2036   20.1754 H   0  0  0  0  0  0  0  0  0  0  0  0
   -3.7019  -20.6310   19.4571 H   0  0  0  0  0  0  0  0  0  0  0  0
  1  2  2  0
  2  3  1  0
  3  4  1  0
  4  5  1  0
  5  6  1  0
  6  7  2  0
  6  8  2  0
  6  9  1  0
  9 10  2  0
 10 11  1  0
 11 12  1  0
 12 13  2  0
  2 14  1  0
 14 15  2  0
 15 16  1  0
 16 17  2  0
 17 18  1  0
 18 19  2  0
 19 20  1  0
 20 21  2  0
 21 22  1  0
 13  9  1  0
 22 14  1  0
 22 17  1  0
  3 23  1  0
  3 24  1  0
  4 25  1  0
  4 26  1  0
  5 27  1  0
 10 28  1  0
 11 29  1  0
 12 30  1  0
 15 31  1  0
 19 32  1  0
 20 33  1  0
 21 34  1  0
M  END
>  <Energy>  (1391) 
394.47992496527888

>  <compound_id>  (1391) 
47251

>  <target_id>  (1391) 
1

>  <reference_id>  (1391) 
80

>  <inspiration_ids>  (1391) 
[107, 80]

>  <energy_score>  (1391) 
296.29798815721813

>  <distance_score>  (1391) 
14.279484637655782

>  <path>  (1391) 
/opt/xchem-fragalysis-2/maxwin/BulkDock/SCRATCH/511023/C47251-P80/C47251-P80.minimised.mol

>  <scratch_subdir>  (1391) 
/opt/xchem-fragalysis-2/maxwin/BulkDock/SCRATCH/511023/C47251-P80

>  <fragmenstein_runtime>  (1391) 
15.229342460632324

>  <fragmenstein_outcome>  (1391) 
too moved

>  <fragmenstein_mode>  (1391) 
expansion

>  <fragmenstein_error>  (1391) 


$$$$
C47252-P107
     RDKit          3D

 35 38  0  0  0  0  0  0  0  0999 V2000
    3.2605  -12.0483   22.5713 O   0  0  0  0  0  0  0  0  0  0  0  0
    2.1348  -11.7560   22.7878 C   0  0  0  0  0  0  0  0  0  0  0  0
    1.3551  -12.1102   23.6366 N   0  0  0  0  0  0  0  0  0  0  0  0
    1.4303  -13.3252   24.9132 C   0  0  0  0  0  0  0  0  0  0  0  0
   -0.0830  -14.2432   24.0615 C   0  0  0  0  0  0  0  0  0  0  0  0
   -1.2428  -14.9545   24.0309 N   0  0  0  0  0  0  0  0  0  0  0  0
   -2.1094  -15.2076   25.0120 C   0  0  0  0  0  0  0  0  0  0  0  0
   -2.7267  -16.3945   25.4497 N   0  0  0  0  0  0  0  0  0  0  0  0
   -2.4265  -16.6410   27.0394 C   0  0  0  0  0  0  0  0  0  0  0  0
   -1.9461  -15.3282   27.4317 C   0  0  0  0  0  0  0  0  0  0  0  0
   -1.6138  -14.3618   25.9831 N   0  0  0  0  0  0  0  0  0  0  0  0
    0.1089  -13.3955   25.9925 C   0  0  0  0  0  0  0  0  0  0  0  0
    0.7724  -10.5349   21.7088 C   0  0  0  0  0  0  0  0  0  0  0  0
   -0.7017  -10.6484   21.4907 C   0  0  0  0  0  0  0  0  0  0  0  0
   -1.6619   -9.6509   21.5139 C   0  0  0  0  0  0  0  0  0  0  0  0
   -1.2183   -8.5740   22.1607 C   0  0  0  0  0  0  0  0  0  0  0  0
    0.1202   -8.2739   22.0296 C   0  0  0  0  0  0  0  0  0  0  0  0
    0.9090   -9.1392   21.2865 C   0  0  0  0  0  0  0  0  0  0  0  0
    0.8953   -8.5936   19.6557 C   0  0  0  0  0  0  0  0  0  0  0  0
   -0.1372   -8.3280   18.8391 N   0  0  0  0  0  0  0  0  0  0  0  0
    0.4024   -8.3983   17.5223 C   0  0  0  0  0  0  0  0  0  0  0  0
    1.7584   -8.4867   17.5017 C   0  0  0  0  0  0  0  0  0  0  0  0
    1.9502   -8.8877   18.7449 N   0  0  0  0  0  0  0  0  0  0  0  0
    0.5839  -11.6115   23.5408 H   0  0  0  0  0  0  0  0  0  0  0  0
   -0.0040  -14.0702   22.9875 H   0  0  0  0  0  0  0  0  0  0  0  0
   -2.7071  -17.5686   27.5174 H   0  0  0  0  0  0  0  0  0  0  0  0
   -1.5838  -14.9386   28.3508 H   0  0  0  0  0  0  0  0  0  0  0  0
    0.6126  -13.5748   26.8614 H   0  0  0  0  0  0  0  0  0  0  0  0
   -1.2521  -11.5346   21.1521 H   0  0  0  0  0  0  0  0  0  0  0  0
   -2.7042   -9.8571   21.3261 H   0  0  0  0  0  0  0  0  0  0  0  0
   -1.9295   -7.9856   22.7052 H   0  0  0  0  0  0  0  0  0  0  0  0
    0.5298   -7.3447   22.3797 H   0  0  0  0  0  0  0  0  0  0  0  0
   -0.1351   -8.2253   16.6251 H   0  0  0  0  0  0  0  0  0  0  0  0
    2.5436   -8.3872   16.7731 H   0  0  0  0  0  0  0  0  0  0  0  0
    2.6548   -9.5669   18.8455 H   0  0  0  0  0  0  0  0  0  0  0  0
  1  2  2  0
  2  3  1  0
  3  4  1  0
  4  5  1  0
  5  6  2  0
  6  7  1  0
  7  8  2  0
  8  9  1  0
  9 10  2  0
 10 11  1  0
 11 12  1  0
  2 13  1  0
 13 14  2  0
 14 15  1  0
 15 16  2  0
 16 17  1  0
 17 18  2  0
 18 19  1  0
 19 20  2  0
 20 21  1  0
 21 22  2  0
 22 23  1  0
 12  4  2  0
 18 13  1  0
 23 19  1  0
 11  7  1  0
  3 24  1  0
  5 25  1  0
  9 26  1  0
 10 27  1  0
 12 28  1  0
 14 29  1  0
 15 30  1  0
 16 31  1  0
 17 32  1  0
 21 33  1  0
 22 34  1  0
 23 35  1  0
M  END
>  <Energy>  (1392) 
802.4040507001248

>  <compound_id>  (1392) 
47252

>  <target_id>  (1392) 
1

>  <reference_id>  (1392) 
107

>  <inspiration_ids>  (1392) 
[107, 80]

>  <energy_score>  (1392) 
694.612501679117

>  <distance_score>  (1392) 
14.434812165017078

>  <path>  (1392) 
/opt/xchem-fragalysis-2/maxwin/BulkDock/SCRATCH/511023/C47252-P107/C47252-P107.minimised.mol

>  <scratch_subdir>  (1392) 
/opt/xchem-fragalysis-2/maxwin/BulkDock/SCRATCH/511023/C47252-P107

>  <fragmenstein_runtime>  (1392) 
24.05902409553528

>  <fragmenstein_outcome>  (1392) 
too moved

>  <fragmenstein_mode>  (1392) 
expansion

>  <fragmenstein_error>  (1392) 


$$$$
C47252-P80
     RDKit          3D

 35 38  0  0  0  0  0  0  0  0999 V2000
   -2.5228   -9.1834   25.7419 O   0  0  0  0  0  0  0  0  0  0  0  0
   -2.5279   -9.2483   24.5573 C   0  0  0  0  0  0  0  0  0  0  0  0
   -3.7242  -10.4784   23.7129 N   0  0  0  0  0  0  0  0  0  0  0  0
   -5.1171  -11.6439   24.4293 C   0  0  0  0  0  0  0  0  0  0  0  0
   -6.6444  -11.1256   25.3772 C   0  0  0  0  0  0  0  0  0  0  0  0
   -7.3046  -11.7117   26.3347 N   0  0  0  0  0  0  0  0  0  0  0  0
   -7.5477  -12.9751   25.9888 C   0  0  0  0  0  0  0  0  0  0  0  0
   -8.2084  -13.9334   26.5965 N   0  0  0  0  0  0  0  0  0  0  0  0
   -8.7026  -14.6860   25.5824 C   0  0  0  0  0  0  0  0  0  0  0  0
   -8.3158  -14.1595   24.3637 C   0  0  0  0  0  0  0  0  0  0  0  0
   -7.3233  -13.2260   24.6388 N   0  0  0  0  0  0  0  0  0  0  0  0
   -6.2198  -12.4456   23.8653 C   0  0  0  0  0  0  0  0  0  0  0  0
   -1.3148   -7.9752   23.8995 C   0  0  0  0  0  0  0  0  0  0  0  0
   -0.6503   -7.9774   25.3830 C   0  0  0  0  0  0  0  0  0  0  0  0
   -0.6876   -7.2644   26.5903 C   0  0  0  0  0  0  0  0  0  0  0  0
   -1.2280   -6.1239   26.2737 C   0  0  0  0  0  0  0  0  0  0  0  0
   -1.3109   -5.9622   24.8866 C   0  0  0  0  0  0  0  0  0  0  0  0
   -0.6316   -6.8750   24.0962 C   0  0  0  0  0  0  0  0  0  0  0  0
    0.5299   -6.3816   23.2097 C   0  0  0  0  0  0  0  0  0  0  0  0
    0.8602   -5.1182   23.1983 N   0  0  0  0  0  0  0  0  0  0  0  0
    1.2773   -4.6385   22.0137 C   0  0  0  0  0  0  0  0  0  0  0  0
    1.3901   -5.7095   21.2126 C   0  0  0  0  0  0  0  0  0  0  0  0
    0.7821   -6.8370   21.9151 N   0  0  0  0  0  0  0  0  0  0  0  0
   -3.6674  -10.3490   22.6860 H   0  0  0  0  0  0  0  0  0  0  0  0
   -7.1374  -10.2110   25.0173 H   0  0  0  0  0  0  0  0  0  0  0  0
   -9.3764  -15.5122   25.7677 H   0  0  0  0  0  0  0  0  0  0  0  0
   -8.6728  -14.4400   23.3919 H   0  0  0  0  0  0  0  0  0  0  0  0
   -6.3651  -12.5383   22.8138 H   0  0  0  0  0  0  0  0  0  0  0  0
    0.4276   -8.0931   25.2918 H   0  0  0  0  0  0  0  0  0  0  0  0
   -0.1777   -7.5048   27.5041 H   0  0  0  0  0  0  0  0  0  0  0  0
   -1.3920   -5.3979   27.0486 H   0  0  0  0  0  0  0  0  0  0  0  0
   -1.7863   -5.1828   24.3170 H   0  0  0  0  0  0  0  0  0  0  0  0
    1.4656   -3.5851   21.9181 H   0  0  0  0  0  0  0  0  0  0  0  0
    1.8429   -5.8701   20.2588 H   0  0  0  0  0  0  0  0  0  0  0  0
    0.6439   -7.7789   21.5663 H   0  0  0  0  0  0  0  0  0  0  0  0
  1  2  2  0
  2  3  1  0
  3  4  1  0
  4  5  1  0
  5  6  2  0
  6  7  1  0
  7  8  2  0
  8  9  1  0
  9 10  2  0
 10 11  1  0
 11 12  1  0
  2 13  1  0
 13 14  2  0
 14 15  1  0
 15 16  2  0
 16 17  1  0
 17 18  2  0
 18 19  1  0
 19 20  2  0
 20 21  1  0
 21 22  2  0
 22 23  1  0
 12  4  2  0
 18 13  1  0
 23 19  1  0
 11  7  1  0
  3 24  1  0
  5 25  1  0
  9 26  1  0
 10 27  1  0
 12 28  1  0
 14 29  1  0
 15 30  1  0
 16 31  1  0
 17 32  1  0
 21 33  1  0
 22 34  1  0
 23 35  1  0
M  END
>  <Energy>  (1393) 
733.93629252090886

>  <compound_id>  (1393) 
47252

>  <target_id>  (1393) 
1

>  <reference_id>  (1393) 
80

>  <inspiration_ids>  (1393) 
[107, 80]

>  <energy_score>  (1393) 
626.1447434998948

>  <distance_score>  (1393) 
13.4616840009484

>  <path>  (1393) 
/opt/xchem-fragalysis-2/maxwin/BulkDock/SCRATCH/511023/C47252-P80/C47252-P80.minimised.mol

>  <scratch_subdir>  (1393) 
/opt/xchem-fragalysis-2/maxwin/BulkDock/SCRATCH/511023/C47252-P80

>  <fragmenstein_runtime>  (1393) 
27.2120099067688

>  <fragmenstein_outcome>  (1393) 
too moved

>  <fragmenstein_mode>  (1393) 
expansion

>  <fragmenstein_error>  (1393) 


$$$$
C47253-P107
     RDKit          3D

 40 43  0  0  0  0  0  0  0  0999 V2000
   -2.5080  -14.2989   26.2546 O   0  0  0  0  0  0  0  0  0  0  0  0
   -2.2378  -15.2172   25.5716 C   0  0  0  0  0  0  0  0  0  0  0  0
   -3.0934  -16.8862   25.5618 N   0  0  0  0  0  0  0  0  0  0  0  0
   -4.4319  -17.5916   26.6462 C   0  0  0  0  0  0  0  0  0  0  0  0
   -5.1912  -17.2709   28.0290 C   0  0  0  0  0  0  0  0  0  0  0  0
   -6.3967  -17.5388   28.5415 N   0  0  0  0  0  0  0  0  0  0  0  0
   -7.2386  -18.5349   28.0590 C   0  0  0  0  0  0  0  0  0  0  0  0
   -8.5803  -18.9149   28.2659 N   0  0  0  0  0  0  0  0  0  0  0  0
   -9.2521  -20.5362   27.7418 C   0  0  0  0  0  0  0  0  0  0  0  0
   -7.5858  -20.9047   27.4567 C   0  0  0  0  0  0  0  0  0  0  0  0
   -6.5497  -19.4806   27.3054 N   0  0  0  0  0  0  0  0  0  0  0  0
   -5.1173  -18.9292   26.5506 C   0  0  0  0  0  0  0  0  0  0  0  0
   -0.8660  -15.3860   24.5240 N   0  0  0  0  0  0  0  0  0  0  0  0
   -1.1731  -14.9003   23.2205 C   0  0  0  0  0  0  0  0  0  0  0  0
   -0.2196  -13.3866   23.0517 C   0  0  0  0  0  0  0  0  0  0  0  0
    1.5646  -12.7153   24.1289 C   0  0  0  0  0  0  0  0  0  0  0  0
    1.3048  -13.4238   25.5415 C   0  0  0  0  0  0  0  0  0  0  0  0
    0.7454  -14.2304   24.2679 C   0  0  0  0  0  0  0  0  0  0  0  0
    2.6652  -14.2877   23.4265 C   0  0  0  0  0  0  0  0  0  0  0  0
    3.0672  -14.5433   22.1703 N   0  0  0  0  0  0  0  0  0  0  0  0
    3.5021  -13.2034   21.4748 C   0  0  0  0  0  0  0  0  0  0  0  0
    3.4897  -12.3144   22.5165 C   0  0  0  0  0  0  0  0  0  0  0  0
    3.4422  -13.1520   23.6909 N   0  0  0  0  0  0  0  0  0  0  0  0
   -2.6183  -17.5050   24.9571 H   0  0  0  0  0  0  0  0  0  0  0  0
   -4.5159  -16.7693   28.7320 H   0  0  0  0  0  0  0  0  0  0  0  0
  -10.1167  -21.1056   28.1409 H   0  0  0  0  0  0  0  0  0  0  0  0
   -7.1228  -21.9042   27.4241 H   0  0  0  0  0  0  0  0  0  0  0  0
   -4.7682  -19.6584   25.8312 H   0  0  0  0  0  0  0  0  0  0  0  0
   -0.7526  -15.3280   22.2857 H   0  0  0  0  0  0  0  0  0  0  0  0
   -2.2651  -15.0214   23.2206 H   0  0  0  0  0  0  0  0  0  0  0  0
   -0.0509  -13.9155   22.1748 H   0  0  0  0  0  0  0  0  0  0  0  0
   -0.8372  -13.6067   23.9360 H   0  0  0  0  0  0  0  0  0  0  0  0
    1.6515  -11.8399   24.7813 H   0  0  0  0  0  0  0  0  0  0  0  0
    1.6471  -11.8396   23.4760 H   0  0  0  0  0  0  0  0  0  0  0  0
    2.0978  -13.7849   26.1771 H   0  0  0  0  0  0  0  0  0  0  0  0
    0.5426  -13.1303   26.2177 H   0  0  0  0  0  0  0  0  0  0  0  0
    1.1954  -14.7311   23.3746 H   0  0  0  0  0  0  0  0  0  0  0  0
    3.9429  -13.1012   20.4925 H   0  0  0  0  0  0  0  0  0  0  0  0
    3.9114  -11.3329   22.4640 H   0  0  0  0  0  0  0  0  0  0  0  0
    3.6790  -12.9187   24.6409 H   0  0  0  0  0  0  0  0  0  0  0  0
  1  2  2  0
  2  3  1  0
  3  4  1  0
  4  5  1  0
  5  6  2  0
  6  7  1  0
  7  8  2  0
  8  9  1  0
  9 10  2  0
 10 11  1  0
 11 12  1  0
  2 13  1  0
 13 14  1  0
 14 15  1  0
 15 16  1  0
 16 17  1  0
 17 18  1  0
 18 19  1  0
 19 20  2  0
 20 21  1  0
 21 22  2  0
 22 23  1  0
 12  4  2  0
 18 13  1  0
 23 19  1  0
 11  7  1  0
  3 24  1  0
  5 25  1  0
  9 26  1  0
 10 27  1  0
 12 28  1  0
 14 29  1  0
 14 30  1  0
 15 31  1  0
 15 32  1  0
 16 33  1  0
 16 34  1  0
 17 35  1  0
 17 36  1  0
 18 37  1  0
 21 38  1  0
 22 39  1  0
 23 40  1  0
M  END
>  <Energy>  (1394) 
1326.0010209357069

>  <compound_id>  (1394) 
47253

>  <target_id>  (1394) 
1

>  <reference_id>  (1394) 
107

>  <inspiration_ids>  (1394) 
[107, 80]

>  <energy_score>  (1394) 
1281.8360472363104

>  <distance_score>  (1394) 
11.651075813378403

>  <path>  (1394) 
/opt/xchem-fragalysis-2/maxwin/BulkDock/SCRATCH/511023/C47253-P107/C47253-P107.minimised.mol

>  <scratch_subdir>  (1394) 
/opt/xchem-fragalysis-2/maxwin/BulkDock/SCRATCH/511023/C47253-P107

>  <fragmenstein_runtime>  (1394) 
26.751834630966187

>  <fragmenstein_outcome>  (1394) 
too moved

>  <fragmenstein_mode>  (1394) 
expansion

>  <fragmenstein_error>  (1394) 


$$$$
C47253-P80
     RDKit          3D

 40 43  0  0  0  0  0  0  0  0999 V2000
   -1.2709  -10.3783   22.1273 O   0  0  0  0  0  0  0  0  0  0  0  0
   -1.8860   -9.5410   22.7300 C   0  0  0  0  0  0  0  0  0  0  0  0
   -3.5232   -9.7926   23.6873 N   0  0  0  0  0  0  0  0  0  0  0  0
   -4.6230  -11.3993   24.1523 C   0  0  0  0  0  0  0  0  0  0  0  0
   -6.3091  -11.5758   25.2238 C   0  0  0  0  0  0  0  0  0  0  0  0
   -7.2010  -12.3998   25.7253 N   0  0  0  0  0  0  0  0  0  0  0  0
   -7.5158  -13.3746   24.8966 C   0  0  0  0  0  0  0  0  0  0  0  0
   -8.3545  -14.3804   24.9627 N   0  0  0  0  0  0  0  0  0  0  0  0
   -8.6680  -14.6102   23.6576 C   0  0  0  0  0  0  0  0  0  0  0  0
   -7.9953  -13.7227   22.8383 C   0  0  0  0  0  0  0  0  0  0  0  0
   -7.0573  -13.1000   23.6453 N   0  0  0  0  0  0  0  0  0  0  0  0
   -6.0239  -12.0700   23.4065 C   0  0  0  0  0  0  0  0  0  0  0  0
   -1.2556   -7.8793   23.0195 N   0  0  0  0  0  0  0  0  0  0  0  0
   -0.5188   -7.8070   24.2899 C   0  0  0  0  0  0  0  0  0  0  0  0
   -0.8777   -6.5407   24.8701 C   0  0  0  0  0  0  0  0  0  0  0  0
   -0.1726   -5.7338   23.9085 C   0  0  0  0  0  0  0  0  0  0  0  0
    0.4074   -5.8119   22.0080 C   0  0  0  0  0  0  0  0  0  0  0  0
    0.4899   -7.0643   22.5659 C   0  0  0  0  0  0  0  0  0  0  0  0
    1.3637   -5.1881   22.7564 C   0  0  0  0  0  0  0  0  0  0  0  0
    0.8090   -3.9093   22.8818 N   0  0  0  0  0  0  0  0  0  0  0  0
    1.3794   -2.7504   22.4097 C   0  0  0  0  0  0  0  0  0  0  0  0
    2.6017   -3.1483   22.7187 C   0  0  0  0  0  0  0  0  0  0  0  0
    2.2021   -4.3861   21.9183 N   0  0  0  0  0  0  0  0  0  0  0  0
   -3.8426   -8.9536   24.0047 H   0  0  0  0  0  0  0  0  0  0  0  0
   -6.6237  -10.6183   25.6754 H   0  0  0  0  0  0  0  0  0  0  0  0
   -9.4082  -15.3462   23.3728 H   0  0  0  0  0  0  0  0  0  0  0  0
   -8.0561  -13.5332   21.7771 H   0  0  0  0  0  0  0  0  0  0  0  0
   -6.2357  -11.6967   22.3890 H   0  0  0  0  0  0  0  0  0  0  0  0
    0.5226   -8.0475   24.2961 H   0  0  0  0  0  0  0  0  0  0  0  0
   -1.0794   -8.2168   25.1497 H   0  0  0  0  0  0  0  0  0  0  0  0
   -1.9158   -6.3122   24.8439 H   0  0  0  0  0  0  0  0  0  0  0  0
   -0.5497   -6.3979   25.9100 H   0  0  0  0  0  0  0  0  0  0  0  0
    0.7528   -6.0007   24.3844 H   0  0  0  0  0  0  0  0  0  0  0  0
   -0.8364   -4.9054   23.8967 H   0  0  0  0  0  0  0  0  0  0  0  0
    0.1939   -4.9484   21.2770 H   0  0  0  0  0  0  0  0  0  0  0  0
    1.2208   -6.2647   21.2676 H   0  0  0  0  0  0  0  0  0  0  0  0
    0.9349   -7.8231   21.9060 H   0  0  0  0  0  0  0  0  0  0  0  0
    0.9219   -1.7820   22.3023 H   0  0  0  0  0  0  0  0  0  0  0  0
    3.5500   -2.6282   22.7001 H   0  0  0  0  0  0  0  0  0  0  0  0
    2.7233   -4.7961   21.1581 H   0  0  0  0  0  0  0  0  0  0  0  0
  1  2  2  0
  2  3  1  0
  3  4  1  0
  4  5  1  0
  5  6  2  0
  6  7  1  0
  7  8  2  0
  8  9  1  0
  9 10  2  0
 10 11  1  0
 11 12  1  0
  2 13  1  0
 13 14  1  0
 14 15  1  0
 15 16  1  0
 16 17  1  0
 17 18  1  0
 18 19  1  0
 19 20  2  0
 20 21  1  0
 21 22  2  0
 22 23  1  0
 12  4  2  0
 18 13  1  0
 23 19  1  0
 11  7  1  0
  3 24  1  0
  5 25  1  0
  9 26  1  0
 10 27  1  0
 12 28  1  0
 14 29  1  0
 14 30  1  0
 15 31  1  0
 15 32  1  0
 16 33  1  0
 16 34  1  0
 17 35  1  0
 17 36  1  0
 18 37  1  0
 21 38  1  0
 22 39  1  0
 23 40  1  0
M  END
>  <Energy>  (1395) 
1366.0725525428441

>  <compound_id>  (1395) 
47253

>  <target_id>  (1395) 
1

>  <reference_id>  (1395) 
80

>  <inspiration_ids>  (1395) 
[107, 80]

>  <energy_score>  (1395) 
1321.9075788434707

>  <distance_score>  (1395) 
13.480000790942094

>  <path>  (1395) 
/opt/xchem-fragalysis-2/maxwin/BulkDock/SCRATCH/511023/C47253-P80/C47253-P80.minimised.mol

>  <scratch_subdir>  (1395) 
/opt/xchem-fragalysis-2/maxwin/BulkDock/SCRATCH/511023/C47253-P80

>  <fragmenstein_runtime>  (1395) 
25.597983837127686

>  <fragmenstein_outcome>  (1395) 
too moved

>  <fragmenstein_mode>  (1395) 
expansion

>  <fragmenstein_error>  (1395) 


$$$$
C47254-P107
     RDKit          3D

 29 31  0  0  0  0  0  0  0  0999 V2000
    6.6253  -10.9986   21.8113 O   0  0  0  0  0  0  0  0  0  0  0  0
    5.8866  -10.8876   23.0692 S   0  0  0  0  0  0  0  0  0  0  0  0
    6.5778  -11.5433   24.1986 O   0  0  0  0  0  0  0  0  0  0  0  0
    3.7515  -11.8184   22.8404 N   0  0  0  0  0  0  0  0  0  0  0  0
    2.4495  -12.9287   24.0217 C   0  0  0  0  0  0  0  0  0  0  0  0
    0.7736  -14.1215   23.9976 C   0  0  0  0  0  0  0  0  0  0  0  0
   -0.8351  -14.1671   23.7782 C   0  0  0  0  0  0  0  0  0  0  0  0
   -2.1168  -15.2533   23.7274 N   0  0  0  0  0  0  0  0  0  0  0  0
   -2.5563  -15.5901   25.0032 C   0  0  0  0  0  0  0  0  0  0  0  0
   -3.2352  -16.4688   25.7412 N   0  0  0  0  0  0  0  0  0  0  0  0
   -3.1309  -16.0997   27.0562 C   0  0  0  0  0  0  0  0  0  0  0  0
   -2.2625  -15.0321   27.1337 C   0  0  0  0  0  0  0  0  0  0  0  0
   -1.9178  -14.6310   25.7399 N   0  0  0  0  0  0  0  0  0  0  0  0
   -0.5146  -14.4741   24.5449 C   0  0  0  0  0  0  0  0  0  0  0  0
    6.2767   -9.0654   23.5817 C   0  0  0  0  0  0  0  0  0  0  0  0
    5.5469   -7.9834   23.3587 N   0  0  0  0  0  0  0  0  0  0  0  0
    6.4328   -6.9266   23.3443 C   0  0  0  0  0  0  0  0  0  0  0  0
    7.7179   -7.3613   23.5591 C   0  0  0  0  0  0  0  0  0  0  0  0
    7.6096   -8.7153   23.7355 N   0  0  0  0  0  0  0  0  0  0  0  0
    3.2733  -10.9150   22.8913 H   0  0  0  0  0  0  0  0  0  0  0  0
    3.0030  -13.7495   23.5588 H   0  0  0  0  0  0  0  0  0  0  0  0
    1.8420  -12.0802   23.7550 H   0  0  0  0  0  0  0  0  0  0  0  0
   -1.4350  -13.1732   24.8359 H   0  0  0  0  0  0  0  0  0  0  0  0
   -3.5764  -16.6787   27.8548 H   0  0  0  0  0  0  0  0  0  0  0  0
   -1.7191  -14.6688   27.9916 H   0  0  0  0  0  0  0  0  0  0  0  0
   -0.6915  -15.5989   24.5418 H   0  0  0  0  0  0  0  0  0  0  0  0
    6.0943   -5.9145   23.1610 H   0  0  0  0  0  0  0  0  0  0  0  0
    8.6697   -6.8489   23.5906 H   0  0  0  0  0  0  0  0  0  0  0  0
    8.3661   -9.3840   23.8122 H   0  0  0  0  0  0  0  0  0  0  0  0
  1  2  2  0
  2  3  2  0
  2  4  1  0
  4  5  1  0
  5  6  1  0
  6  7  1  0
  7  8  2  0
  8  9  1  0
  9 10  2  0
 10 11  1  0
 11 12  2  0
 12 13  1  0
 13 14  1  0
  2 15  1  0
 15 16  2  0
 16 17  1  0
 17 18  2  0
 18 19  1  0
 14  6  2  0
 19 15  1  0
 13  9  1  0
  4 20  1  0
  5 21  1  0
  5 22  1  0
  7 23  1  0
 11 24  1  0
 12 25  1  0
 14 26  1  0
 17 27  1  0
 18 28  1  0
 19 29  1  0
M  END
>  <Energy>  (1396) 
1028.6197511559028

>  <compound_id>  (1396) 
47254

>  <target_id>  (1396) 
1

>  <reference_id>  (1396) 
107

>  <inspiration_ids>  (1396) 
[107, 80]

>  <energy_score>  (1396) 
1006.6041237259753

>  <distance_score>  (1396) 
13.40373706958031

>  <path>  (1396) 
/opt/xchem-fragalysis-2/maxwin/BulkDock/SCRATCH/511023/C47254-P107/C47254-P107.minimised.mol

>  <scratch_subdir>  (1396) 
/opt/xchem-fragalysis-2/maxwin/BulkDock/SCRATCH/511023/C47254-P107

>  <fragmenstein_runtime>  (1396) 
14.625442743301392

>  <fragmenstein_outcome>  (1396) 
too moved

>  <fragmenstein_mode>  (1396) 
expansion

>  <fragmenstein_error>  (1396) 


$$$$
C47254-P80
     RDKit          3D

 29 31  0  0  0  0  0  0  0  0999 V2000
   -1.8519   -9.1162   30.4786 O   0  0  0  0  0  0  0  0  0  0  0  0
   -2.6395   -9.0668   29.2613 S   0  0  0  0  0  0  0  0  0  0  0  0
   -3.7946   -8.2064   29.1424 O   0  0  0  0  0  0  0  0  0  0  0  0
   -3.1811  -10.7225   29.0458 N   0  0  0  0  0  0  0  0  0  0  0  0
   -4.4988  -11.0593   29.7429 C   0  0  0  0  0  0  0  0  0  0  0  0
   -5.0083  -12.5131   29.5688 C   0  0  0  0  0  0  0  0  0  0  0  0
   -6.2400  -12.7679   28.7182 C   0  0  0  0  0  0  0  0  0  0  0  0
   -6.9312  -13.8662   28.6037 N   0  0  0  0  0  0  0  0  0  0  0  0
   -6.4959  -14.9386   29.3242 C   0  0  0  0  0  0  0  0  0  0  0  0
   -6.9736  -16.1675   29.3739 N   0  0  0  0  0  0  0  0  0  0  0  0
   -6.1537  -16.8503   30.2352 C   0  0  0  0  0  0  0  0  0  0  0  0
   -5.1863  -16.0253   30.7548 C   0  0  0  0  0  0  0  0  0  0  0  0
   -5.3813  -14.8123   30.1478 N   0  0  0  0  0  0  0  0  0  0  0  0
   -4.6645  -13.6143   30.2764 C   0  0  0  0  0  0  0  0  0  0  0  0
   -1.4065   -8.3798   28.0305 C   0  0  0  0  0  0  0  0  0  0  0  0
   -1.6375   -7.9091   26.8049 N   0  0  0  0  0  0  0  0  0  0  0  0
   -0.4766   -7.2673   26.3991 C   0  0  0  0  0  0  0  0  0  0  0  0
    0.4886   -7.3574   27.3716 C   0  0  0  0  0  0  0  0  0  0  0  0
   -0.1073   -8.0528   28.3971 N   0  0  0  0  0  0  0  0  0  0  0  0
   -2.4570  -11.2912   29.4831 H   0  0  0  0  0  0  0  0  0  0  0  0
   -5.2711  -10.3709   29.3840 H   0  0  0  0  0  0  0  0  0  0  0  0
   -4.3595  -10.8783   30.8160 H   0  0  0  0  0  0  0  0  0  0  0  0
   -6.5776  -11.8954   28.1321 H   0  0  0  0  0  0  0  0  0  0  0  0
   -6.2855  -17.9021   30.4390 H   0  0  0  0  0  0  0  0  0  0  0  0
   -4.3868  -16.2066   31.4575 H   0  0  0  0  0  0  0  0  0  0  0  0
   -3.8581  -13.6176   30.9992 H   0  0  0  0  0  0  0  0  0  0  0  0
   -0.4116   -6.7865   25.4300 H   0  0  0  0  0  0  0  0  0  0  0  0
    1.4979   -6.9758   27.4415 H   0  0  0  0  0  0  0  0  0  0  0  0
    0.2705   -8.2193   29.3220 H   0  0  0  0  0  0  0  0  0  0  0  0
  1  2  2  0
  2  3  2  0
  2  4  1  0
  4  5  1  0
  5  6  1  0
  6  7  1  0
  7  8  2  0
  8  9  1  0
  9 10  2  0
 10 11  1  0
 11 12  2  0
 12 13  1  0
 13 14  1  0
  2 15  1  0
 15 16  2  0
 16 17  1  0
 17 18  2  0
 18 19  1  0
 14  6  2  0
 19 15  1  0
 13  9  1  0
  4 20  1  0
  5 21  1  0
  5 22  1  0
  7 23  1  0
 11 24  1  0
 12 25  1  0
 14 26  1  0
 17 27  1  0
 18 28  1  0
 19 29  1  0
M  END
>  <Energy>  (1397) 
1.8034479086142658

>  <compound_id>  (1397) 
47254

>  <target_id>  (1397) 
1

>  <reference_id>  (1397) 
80

>  <inspiration_ids>  (1397) 
[107, 80]

>  <energy_score>  (1397) 
-20.212179521315363

>  <distance_score>  (1397) 
14.153900068772469

>  <path>  (1397) 
/opt/xchem-fragalysis-2/maxwin/BulkDock/SCRATCH/511023/C47254-P80/C47254-P80.minimised.mol

>  <scratch_subdir>  (1397) 
/opt/xchem-fragalysis-2/maxwin/BulkDock/SCRATCH/511023/C47254-P80

>  <fragmenstein_runtime>  (1397) 
13.866874694824219

>  <fragmenstein_outcome>  (1397) 
too moved

>  <fragmenstein_mode>  (1397) 
expansion

>  <fragmenstein_error>  (1397) 


$$$$
C8668-P107
     RDKit          3D

 36 39  0  0  0  0  0  0  0  0999 V2000
    1.6314   -8.3893   22.1715 C   0  0  0  0  0  0  0  0  0  0  0  0
    1.9361   -9.5775   21.6770 C   0  0  0  0  0  0  0  0  0  0  0  0
    3.1483  -10.7927   22.7109 C   0  0  0  0  0  0  0  0  0  0  0  0
    2.1355  -12.2775   23.7147 C   0  0  0  0  0  0  0  0  0  0  0  0
    0.8713  -13.9023   23.7913 N   0  0  0  0  0  0  0  0  0  0  0  0
   -0.8913  -14.5774   23.8773 C   0  0  0  0  0  0  0  0  0  0  0  0
   -1.4110  -15.2325   22.6390 C   0  0  0  0  0  0  0  0  0  0  0  0
   -2.7553  -15.8099   22.2810 C   0  0  0  0  0  0  0  0  0  0  0  0
   -3.6962  -16.0573   23.1047 N   0  0  0  0  0  0  0  0  0  0  0  0
   -3.4947  -15.7141   24.3954 C   0  0  0  0  0  0  0  0  0  0  0  0
   -4.4560  -15.8792   25.2815 N   0  0  0  0  0  0  0  0  0  0  0  0
   -3.9868  -15.4504   26.4529 C   0  0  0  0  0  0  0  0  0  0  0  0
   -2.6972  -15.0150   26.3069 C   0  0  0  0  0  0  0  0  0  0  0  0
   -2.2528  -15.0630   24.9419 N   0  0  0  0  0  0  0  0  0  0  0  0
    4.6020   -9.9322   23.1926 C   0  0  0  0  0  0  0  0  0  0  0  0
    4.5690   -8.1081   23.0092 C   0  0  0  0  0  0  0  0  0  0  0  0
    6.1411   -7.1831   22.1183 C   0  0  0  0  0  0  0  0  0  0  0  0
    7.0579   -6.0741   21.9149 N   0  0  0  0  0  0  0  0  0  0  0  0
    7.0995   -5.3271   20.1030 C   0  0  0  0  0  0  0  0  0  0  0  0
    6.8734   -6.3046   19.1063 C   0  0  0  0  0  0  0  0  0  0  0  0
    6.7252   -7.5055   20.4027 N   0  0  0  0  0  0  0  0  0  0  0  0
    2.9314   -8.2617   22.9724 C   0  0  0  0  0  0  0  0  0  0  0  0
    0.6403   -8.0330   22.4128 H   0  0  0  0  0  0  0  0  0  0  0  0
    0.9436  -10.0257   21.3474 H   0  0  0  0  0  0  0  0  0  0  0  0
    2.9544  -12.9372   23.4196 H   0  0  0  0  0  0  0  0  0  0  0  0
    1.3605  -11.7935   23.1271 H   0  0  0  0  0  0  0  0  0  0  0  0
    0.7641  -13.6604   24.7989 H   0  0  0  0  0  0  0  0  0  0  0  0
   -0.7326  -15.6412   21.9129 H   0  0  0  0  0  0  0  0  0  0  0  0
   -2.8733  -16.0744   21.2150 H   0  0  0  0  0  0  0  0  0  0  0  0
   -4.5552  -15.5410   27.3702 H   0  0  0  0  0  0  0  0  0  0  0  0
   -2.0392  -14.9067   27.1472 H   0  0  0  0  0  0  0  0  0  0  0  0
    5.4960  -10.5959   23.2744 H   0  0  0  0  0  0  0  0  0  0  0  0
    7.7101   -4.4123   20.1740 H   0  0  0  0  0  0  0  0  0  0  0  0
    6.1436   -6.3631   18.2901 H   0  0  0  0  0  0  0  0  0  0  0  0
    7.6404   -7.3782   20.5679 H   0  0  0  0  0  0  0  0  0  0  0  0
    2.5856   -7.7407   23.8990 H   0  0  0  0  0  0  0  0  0  0  0  0
  1  2  2  0
  2  3  1  0
  3  4  1  0
  4  5  1  0
  5  6  1  0
  6  7  2  0
  7  8  1  0
  8  9  2  0
  9 10  1  0
 10 11  2  0
 11 12  1  0
 12 13  2  0
 13 14  1  0
  3 15  2  0
 15 16  1  0
 16 17  1  0
 17 18  2  0
 18 19  1  0
 19 20  2  0
 20 21  1  0
 16 22  2  0
 22  1  1  0
 14  6  1  0
 21 17  1  0
 14 10  1  0
  1 23  1  0
  2 24  1  0
  4 25  1  0
  4 26  1  0
  5 27  1  0
  7 28  1  0
  8 29  1  0
 12 30  1  0
 13 31  1  0
 15 32  1  0
 19 33  1  0
 20 34  1  0
 21 35  1  0
 22 36  1  0
M  END
>  <Energy>  (1398) 
1291.1954664600544

>  <compound_id>  (1398) 
8668

>  <target_id>  (1398) 
1

>  <reference_id>  (1398) 
107

>  <inspiration_ids>  (1398) 
[107, 80]

>  <energy_score>  (1398) 
1200.2030916694778

>  <distance_score>  (1398) 
12.432214865138421

>  <path>  (1398) 
/opt/xchem-fragalysis-2/maxwin/BulkDock/SCRATCH/511023/C8668-P107/C8668-P107.minimised.mol

>  <scratch_subdir>  (1398) 
/opt/xchem-fragalysis-2/maxwin/BulkDock/SCRATCH/511023/C8668-P107

>  <fragmenstein_runtime>  (1398) 
21.947004318237305

>  <fragmenstein_outcome>  (1398) 
too moved

>  <fragmenstein_mode>  (1398) 
expansion

>  <fragmenstein_error>  (1398) 


$$$$
C8668-P80
     RDKit          3D

 36 39  0  0  0  0  0  0  0  0999 V2000
    3.2927  -11.9441   23.0785 C   0  0  0  0  0  0  0  0  0  0  0  0
    3.1246  -12.9986   23.8810 C   0  0  0  0  0  0  0  0  0  0  0  0
    3.0555  -13.6538   22.7873 C   0  0  0  0  0  0  0  0  0  0  0  0
    1.2510  -14.5518   23.3588 C   0  0  0  0  0  0  0  0  0  0  0  0
   -0.6339  -14.4212   24.1527 N   0  0  0  0  0  0  0  0  0  0  0  0
   -2.1834  -15.0584   24.9678 C   0  0  0  0  0  0  0  0  0  0  0  0
   -3.0125  -14.1182   25.5980 C   0  0  0  0  0  0  0  0  0  0  0  0
   -4.4719  -14.2881   25.8863 C   0  0  0  0  0  0  0  0  0  0  0  0
   -5.2015  -15.3059   25.6086 N   0  0  0  0  0  0  0  0  0  0  0  0
   -4.5049  -16.4134   25.2906 C   0  0  0  0  0  0  0  0  0  0  0  0
   -5.0065  -17.6335   25.2955 N   0  0  0  0  0  0  0  0  0  0  0  0
   -3.9899  -18.4098   25.7224 C   0  0  0  0  0  0  0  0  0  0  0  0
   -2.8517  -17.6519   25.8533 C   0  0  0  0  0  0  0  0  0  0  0  0
   -3.0675  -16.4188   25.1679 N   0  0  0  0  0  0  0  0  0  0  0  0
    4.0626  -12.8319   21.2803 C   0  0  0  0  0  0  0  0  0  0  0  0
    5.3923  -11.6221   20.7775 C   0  0  0  0  0  0  0  0  0  0  0  0
    6.8497  -10.2815   20.2775 C   0  0  0  0  0  0  0  0  0  0  0  0
    7.6231   -9.7855   19.4232 N   0  0  0  0  0  0  0  0  0  0  0  0
    7.6466   -7.7394   19.5453 C   0  0  0  0  0  0  0  0  0  0  0  0
    8.4979   -8.8231   19.0787 C   0  0  0  0  0  0  0  0  0  0  0  0
    6.9158   -8.1499   20.2325 N   0  0  0  0  0  0  0  0  0  0  0  0
    4.5817  -11.1664   22.1224 C   0  0  0  0  0  0  0  0  0  0  0  0
    2.3045  -11.5496   23.1342 H   0  0  0  0  0  0  0  0  0  0  0  0
    3.6373  -13.6045   24.6067 H   0  0  0  0  0  0  0  0  0  0  0  0
    1.2011  -13.7487   24.0782 H   0  0  0  0  0  0  0  0  0  0  0  0
    0.8119  -14.8221   22.3389 H   0  0  0  0  0  0  0  0  0  0  0  0
   -0.5013  -13.6001   24.7348 H   0  0  0  0  0  0  0  0  0  0  0  0
   -2.7871  -13.0586   25.6464 H   0  0  0  0  0  0  0  0  0  0  0  0
   -4.9670  -13.3804   26.2719 H   0  0  0  0  0  0  0  0  0  0  0  0
   -4.1380  -19.4444   26.0032 H   0  0  0  0  0  0  0  0  0  0  0  0
   -1.9338  -17.9100   26.3621 H   0  0  0  0  0  0  0  0  0  0  0  0
    3.8048  -13.2688   20.3279 H   0  0  0  0  0  0  0  0  0  0  0  0
    8.9782   -7.6652   19.8421 H   0  0  0  0  0  0  0  0  0  0  0  0
    8.4531   -9.4525   18.0339 H   0  0  0  0  0  0  0  0  0  0  0  0
    6.9357   -7.4839   21.1184 H   0  0  0  0  0  0  0  0  0  0  0  0
    5.2778  -10.6701   22.8179 H   0  0  0  0  0  0  0  0  0  0  0  0
  1  2  2  0
  2  3  1  0
  3  4  1  0
  4  5  1  0
  5  6  1  0
  6  7  2  0
  7  8  1  0
  8  9  2  0
  9 10  1  0
 10 11  2  0
 11 12  1  0
 12 13  2  0
 13 14  1  0
  3 15  2  0
 15 16  1  0
 16 17  1  0
 17 18  2  0
 18 19  1  0
 19 20  2  0
 20 21  1  0
 16 22  2  0
 22  1  1  0
 14  6  1  0
 21 17  1  0
 14 10  1  0
  1 23  1  0
  2 24  1  0
  4 25  1  0
  4 26  1  0
  5 27  1  0
  7 28  1  0
  8 29  1  0
 12 30  1  0
 13 31  1  0
 15 32  1  0
 19 33  1  0
 20 34  1  0
 21 35  1  0
 22 36  1  0
M  END
>  <Energy>  (1399) 
2104.4406796675703

>  <compound_id>  (1399) 
8668

>  <target_id>  (1399) 
1

>  <reference_id>  (1399) 
80

>  <inspiration_ids>  (1399) 
[107, 80]

>  <energy_score>  (1399) 
2013.448304876994

>  <distance_score>  (1399) 
11.6558188953907

>  <path>  (1399) 
/opt/xchem-fragalysis-2/maxwin/BulkDock/SCRATCH/511023/C8668-P80/C8668-P80.minimised.mol

>  <scratch_subdir>  (1399) 
/opt/xchem-fragalysis-2/maxwin/BulkDock/SCRATCH/511023/C8668-P80

>  <fragmenstein_runtime>  (1399) 
20.354658603668213

>  <fragmenstein_outcome>  (1399) 
too moved

>  <fragmenstein_mode>  (1399) 
expansion

>  <fragmenstein_error>  (1399) 


$$$$
C8685-P107
     RDKit          3D

 38 41  0  0  0  0  0  0  0  0999 V2000
   -2.7920  -15.8725   24.0792 O   0  0  0  0  0  0  0  0  0  0  0  0
   -2.0479  -15.0797   24.5843 C   0  0  0  0  0  0  0  0  0  0  0  0
   -0.4939  -14.4096   23.8184 N   0  0  0  0  0  0  0  0  0  0  0  0
    0.4536  -14.8925   22.0670 C   0  0  0  0  0  0  0  0  0  0  0  0
    2.1356  -14.6215   20.7445 C   0  0  0  0  0  0  0  0  0  0  0  0
    3.3581  -13.4132   20.9471 C   0  0  0  0  0  0  0  0  0  0  0  0
    4.3068  -12.8269   19.6753 C   0  0  0  0  0  0  0  0  0  0  0  0
    3.7800  -12.8674   18.2730 C   0  0  0  0  0  0  0  0  0  0  0  0
    3.7531  -11.7872   16.6889 C   0  0  0  0  0  0  0  0  0  0  0  0
    3.5732  -10.6156   16.1873 N   0  0  0  0  0  0  0  0  0  0  0  0
    3.8754  -10.7049   14.4475 C   0  0  0  0  0  0  0  0  0  0  0  0
    3.5407  -11.8903   13.9742 C   0  0  0  0  0  0  0  0  0  0  0  0
    4.2830  -12.0718   15.0948 N   0  0  0  0  0  0  0  0  0  0  0  0
    3.3290  -14.2247   18.2619 C   0  0  0  0  0  0  0  0  0  0  0  0
    2.4413  -14.8107   19.2058 C   0  0  0  0  0  0  0  0  0  0  0  0
   -2.6870  -14.5802   25.9968 C   0  0  0  0  0  0  0  0  0  0  0  0
   -4.0266  -13.8383   25.7987 C   0  0  0  0  0  0  0  0  0  0  0  0
   -5.0923  -14.2616   26.5067 C   0  0  0  0  0  0  0  0  0  0  0  0
   -4.9366  -15.2468   27.4648 N   0  0  0  0  0  0  0  0  0  0  0  0
   -5.8641  -15.8837   28.2557 C   0  0  0  0  0  0  0  0  0  0  0  0
   -5.1383  -16.7607   29.0249 C   0  0  0  0  0  0  0  0  0  0  0  0
   -3.7988  -16.6617   28.7256 N   0  0  0  0  0  0  0  0  0  0  0  0
   -3.6819  -15.7463   27.7776 C   0  0  0  0  0  0  0  0  0  0  0  0
   -2.5656  -15.3667   27.0616 N   0  0  0  0  0  0  0  0  0  0  0  0
   -0.0104  -13.8230   24.4850 H   0  0  0  0  0  0  0  0  0  0  0  0
    0.0040  -15.8667   21.6981 H   0  0  0  0  0  0  0  0  0  0  0  0
   -0.1654  -14.0151   22.0259 H   0  0  0  0  0  0  0  0  0  0  0  0
    3.4453  -12.8505   21.8777 H   0  0  0  0  0  0  0  0  0  0  0  0
    5.1415  -12.1980   19.9743 H   0  0  0  0  0  0  0  0  0  0  0  0
    4.2358   -9.8646   13.8433 H   0  0  0  0  0  0  0  0  0  0  0  0
    3.6488  -12.3061   12.9845 H   0  0  0  0  0  0  0  0  0  0  0  0
    5.0596  -12.6700   14.9071 H   0  0  0  0  0  0  0  0  0  0  0  0
    3.3907  -14.9276   17.4477 H   0  0  0  0  0  0  0  0  0  0  0  0
    1.8296  -15.3751   18.5504 H   0  0  0  0  0  0  0  0  0  0  0  0
   -4.1083  -13.0661   25.0511 H   0  0  0  0  0  0  0  0  0  0  0  0
   -6.0853  -13.8526   26.3705 H   0  0  0  0  0  0  0  0  0  0  0  0
   -6.9196  -15.6646   28.2011 H   0  0  0  0  0  0  0  0  0  0  0  0
   -5.4959  -17.4558   29.7766 H   0  0  0  0  0  0  0  0  0  0  0  0
  1  2  2  0
  2  3  1  0
  3  4  1  0
  4  5  1  0
  5  6  2  0
  6  7  1  0
  7  8  2  0
  8  9  1  0
  9 10  2  0
 10 11  1  0
 11 12  2  0
 12 13  1  0
  8 14  1  0
 14 15  2  0
  2 16  1  0
 16 17  1  0
 17 18  2  0
 18 19  1  0
 19 20  1  0
 20 21  2  0
 21 22  1  0
 22 23  2  0
 23 24  1  0
 15  5  1  0
 24 16  2  0
 13  9  1  0
 23 19  1  0
  3 25  1  0
  4 26  1  0
  4 27  1  0
  6 28  1  0
  7 29  1  0
 11 30  1  0
 12 31  1  0
 13 32  1  0
 14 33  1  0
 15 34  1  0
 17 35  1  0
 18 36  1  0
 20 37  1  0
 21 38  1  0
M  END
>  <Energy>  (1400) 
868.37022202550293

>  <compound_id>  (1400) 
8685

>  <target_id>  (1400) 
1

>  <reference_id>  (1400) 
107

>  <inspiration_ids>  (1400) 
[107, 80]

>  <energy_score>  (1400) 
781.5385650626795

>  <distance_score>  (1400) 
12.415589862357173

>  <path>  (1400) 
/opt/xchem-fragalysis-2/maxwin/BulkDock/SCRATCH/511023/C8685-P107/C8685-P107.minimised.mol

>  <scratch_subdir>  (1400) 
/opt/xchem-fragalysis-2/maxwin/BulkDock/SCRATCH/511023/C8685-P107

>  <fragmenstein_runtime>  (1400) 
24.412617206573486

>  <fragmenstein_outcome>  (1400) 
too moved

>  <fragmenstein_mode>  (1400) 
expansion

>  <fragmenstein_error>  (1400) 


$$$$
C8685-P80
     RDKit          3D

 38 41  0  0  0  0  0  0  0  0999 V2000
   -1.9774  -14.4376   26.4360 O   0  0  0  0  0  0  0  0  0  0  0  0
   -2.0907  -14.7664   25.2856 C   0  0  0  0  0  0  0  0  0  0  0  0
   -0.9697  -14.6440   24.0118 N   0  0  0  0  0  0  0  0  0  0  0  0
    0.8976  -14.0631   23.9900 C   0  0  0  0  0  0  0  0  0  0  0  0
    2.8072  -13.5810   23.2105 C   0  0  0  0  0  0  0  0  0  0  0  0
    3.3980  -13.4643   21.4646 C   0  0  0  0  0  0  0  0  0  0  0  0
    4.5723  -12.6598   20.2468 C   0  0  0  0  0  0  0  0  0  0  0  0
    5.4143  -11.2783   20.1823 C   0  0  0  0  0  0  0  0  0  0  0  0
    5.2626   -9.6947   18.7923 C   0  0  0  0  0  0  0  0  0  0  0  0
    4.2200   -8.9101   18.2815 N   0  0  0  0  0  0  0  0  0  0  0  0
    4.6557   -7.1820   17.9335 C   0  0  0  0  0  0  0  0  0  0  0  0
    5.8696   -6.9166   18.2740 C   0  0  0  0  0  0  0  0  0  0  0  0
    5.6369   -7.9318   19.2182 N   0  0  0  0  0  0  0  0  0  0  0  0
    4.5532  -11.3228   21.7961 C   0  0  0  0  0  0  0  0  0  0  0  0
    3.3658  -12.2269   22.9569 C   0  0  0  0  0  0  0  0  0  0  0  0
   -3.4807  -15.5048   25.0782 C   0  0  0  0  0  0  0  0  0  0  0  0
   -4.6952  -14.6049   25.0968 C   0  0  0  0  0  0  0  0  0  0  0  0
   -5.7947  -15.0802   25.7040 C   0  0  0  0  0  0  0  0  0  0  0  0
   -5.7768  -16.3516   26.2372 N   0  0  0  0  0  0  0  0  0  0  0  0
   -6.6727  -16.9516   27.0786 C   0  0  0  0  0  0  0  0  0  0  0  0
   -6.0881  -18.1463   27.4049 C   0  0  0  0  0  0  0  0  0  0  0  0
   -4.9259  -18.3392   26.7024 N   0  0  0  0  0  0  0  0  0  0  0  0
   -4.6963  -17.2087   26.0558 C   0  0  0  0  0  0  0  0  0  0  0  0
   -3.5433  -16.7746   25.4311 N   0  0  0  0  0  0  0  0  0  0  0  0
   -1.3626  -15.0748   23.1589 H   0  0  0  0  0  0  0  0  0  0  0  0
    0.2398  -14.0042   23.0774 H   0  0  0  0  0  0  0  0  0  0  0  0
    0.9740  -13.7270   25.0704 H   0  0  0  0  0  0  0  0  0  0  0  0
    2.7728  -14.1535   20.8491 H   0  0  0  0  0  0  0  0  0  0  0  0
    4.3812  -13.0889   19.2554 H   0  0  0  0  0  0  0  0  0  0  0  0
    4.3761   -6.6785   17.0270 H   0  0  0  0  0  0  0  0  0  0  0  0
    6.5916   -6.1326   18.2381 H   0  0  0  0  0  0  0  0  0  0  0  0
    6.4162   -7.9641   19.8386 H   0  0  0  0  0  0  0  0  0  0  0  0
    5.0563  -10.6519   22.5215 H   0  0  0  0  0  0  0  0  0  0  0  0
    2.7005  -11.5846   23.5042 H   0  0  0  0  0  0  0  0  0  0  0  0
   -4.6185  -13.5714   24.7964 H   0  0  0  0  0  0  0  0  0  0  0  0
   -6.6784  -14.4771   25.8706 H   0  0  0  0  0  0  0  0  0  0  0  0
   -7.5772  -16.4663   27.4142 H   0  0  0  0  0  0  0  0  0  0  0  0
   -6.4564  -18.8706   28.1082 H   0  0  0  0  0  0  0  0  0  0  0  0
  1  2  2  0
  2  3  1  0
  3  4  1  0
  4  5  1  0
  5  6  2  0
  6  7  1  0
  7  8  2  0
  8  9  1  0
  9 10  2  0
 10 11  1  0
 11 12  2  0
 12 13  1  0
  8 14  1  0
 14 15  2  0
  2 16  1  0
 16 17  1  0
 17 18  2  0
 18 19  1  0
 19 20  1  0
 20 21  2  0
 21 22  1  0
 22 23  2  0
 23 24  1  0
 15  5  1  0
 24 16  2  0
 13  9  1  0
 23 19  1  0
  3 25  1  0
  4 26  1  0
  4 27  1  0
  6 28  1  0
  7 29  1  0
 11 30  1  0
 12 31  1  0
 13 32  1  0
 14 33  1  0
 15 34  1  0
 17 35  1  0
 18 36  1  0
 20 37  1  0
 21 38  1  0
M  END
>  <Energy>  (1401) 
1137.5078831544843

>  <compound_id>  (1401) 
8685

>  <target_id>  (1401) 
1

>  <reference_id>  (1401) 
80

>  <inspiration_ids>  (1401) 
[107, 80]

>  <energy_score>  (1401) 
1050.6762261916604

>  <distance_score>  (1401) 
10.819499021904521

>  <path>  (1401) 
/opt/xchem-fragalysis-2/maxwin/BulkDock/SCRATCH/511023/C8685-P80/C8685-P80.minimised.mol

>  <scratch_subdir>  (1401) 
/opt/xchem-fragalysis-2/maxwin/BulkDock/SCRATCH/511023/C8685-P80

>  <fragmenstein_runtime>  (1401) 
27.91410517692566

>  <fragmenstein_outcome>  (1401) 
too moved

>  <fragmenstein_mode>  (1401) 
expansion

>  <fragmenstein_error>  (1401) 


$$$$
C47255-P107
     RDKit          3D

 38 41  0  0  0  0  0  0  0  0999 V2000
    1.7264  -11.9752   23.6817 O   0  0  0  0  0  0  0  0  0  0  0  0
    0.8535  -11.9156   22.9361 C   0  0  0  0  0  0  0  0  0  0  0  0
    0.9979  -10.2346   21.9393 N   0  0  0  0  0  0  0  0  0  0  0  0
    2.3389   -8.6126   22.2136 C   0  0  0  0  0  0  0  0  0  0  0  0
    4.2689   -8.0024   23.1017 C   0  0  0  0  0  0  0  0  0  0  0  0
    5.1703   -8.3674   24.6553 C   0  0  0  0  0  0  0  0  0  0  0  0
    6.4574   -8.6828   25.4954 C   0  0  0  0  0  0  0  0  0  0  0  0
    7.6427   -8.4937   24.9549 C   0  0  0  0  0  0  0  0  0  0  0  0
    7.3988   -7.6284   23.9013 C   0  0  0  0  0  0  0  0  0  0  0  0
    5.9026   -7.0873   23.0605 C   0  0  0  0  0  0  0  0  0  0  0  0
    7.2372   -6.5214   22.0497 C   0  0  0  0  0  0  0  0  0  0  0  0
    7.9063   -7.1240   21.0746 N   0  0  0  0  0  0  0  0  0  0  0  0
    9.1868   -6.6577   21.1881 C   0  0  0  0  0  0  0  0  0  0  0  0
    9.2592   -5.4831   21.8811 C   0  0  0  0  0  0  0  0  0  0  0  0
    8.0364   -5.4095   22.4672 N   0  0  0  0  0  0  0  0  0  0  0  0
   -0.3255  -13.6305   23.2794 C   0  0  0  0  0  0  0  0  0  0  0  0
   -1.3183  -14.9642   23.4202 C   0  0  0  0  0  0  0  0  0  0  0  0
   -2.2473  -15.5940   24.7967 N   0  0  0  0  0  0  0  0  0  0  0  0
   -2.5779  -17.0851   25.6293 C   0  0  0  0  0  0  0  0  0  0  0  0
   -2.6449  -17.3254   26.9730 C   0  0  0  0  0  0  0  0  0  0  0  0
   -2.2414  -16.1483   27.7600 C   0  0  0  0  0  0  0  0  0  0  0  0
   -1.9955  -14.9793   27.2121 N   0  0  0  0  0  0  0  0  0  0  0  0
   -2.0022  -14.5937   25.6903 C   0  0  0  0  0  0  0  0  0  0  0  0
   -1.1063  -13.7656   25.0083 N   0  0  0  0  0  0  0  0  0  0  0  0
    0.2720  -10.2345   21.2280 H   0  0  0  0  0  0  0  0  0  0  0  0
    1.5080   -7.9113   21.8490 H   0  0  0  0  0  0  0  0  0  0  0  0
    1.9299   -8.2707   23.2081 H   0  0  0  0  0  0  0  0  0  0  0  0
    4.6379   -8.2134   25.5629 H   0  0  0  0  0  0  0  0  0  0  0  0
    6.3464   -9.0470   26.5144 H   0  0  0  0  0  0  0  0  0  0  0  0
    8.6052   -8.7405   25.3644 H   0  0  0  0  0  0  0  0  0  0  0  0
    8.3981   -7.3712   23.5258 H   0  0  0  0  0  0  0  0  0  0  0  0
   10.0057   -7.2584   20.8590 H   0  0  0  0  0  0  0  0  0  0  0  0
   10.0832   -4.8285   22.1311 H   0  0  0  0  0  0  0  0  0  0  0  0
    7.7274   -4.7735   23.1861 H   0  0  0  0  0  0  0  0  0  0  0  0
   -2.1987  -14.9413   22.8668 H   0  0  0  0  0  0  0  0  0  0  0  0
   -2.2888  -18.0153   25.2199 H   0  0  0  0  0  0  0  0  0  0  0  0
   -2.6683  -18.3000   27.4396 H   0  0  0  0  0  0  0  0  0  0  0  0
   -2.1673  -16.2746   28.8519 H   0  0  0  0  0  0  0  0  0  0  0  0
  1  2  2  0
  2  3  1  0
  3  4  1  0
  4  5  1  0
  5  6  2  0
  6  7  1  0
  7  8  2  0
  8  9  1  0
  9 10  2  0
 10 11  1  0
 11 12  2  0
 12 13  1  0
 13 14  2  0
 14 15  1  0
  2 16  1  0
 16 17  2  0
 17 18  1  0
 18 19  1  0
 19 20  2  0
 20 21  1  0
 21 22  2  0
 22 23  1  0
 23 24  2  0
 10  5  1  0
 15 11  1  0
 24 16  1  0
 23 18  1  0
  3 25  1  0
  4 26  1  0
  4 27  1  0
  6 28  1  0
  7 29  1  0
  8 30  1  0
  9 31  1  0
 13 32  1  0
 14 33  1  0
 15 34  1  0
 17 35  1  0
 19 36  1  0
 20 37  1  0
 21 38  1  0
M  END
>  <Energy>  (1402) 
1522.5488218511177

>  <compound_id>  (1402) 
47255

>  <target_id>  (1402) 
1

>  <reference_id>  (1402) 
107

>  <inspiration_ids>  (1402) 
[107, 80]

>  <energy_score>  (1402) 
1444.3680246789208

>  <distance_score>  (1402) 
12.19795729133973

>  <path>  (1402) 
/opt/xchem-fragalysis-2/maxwin/BulkDock/SCRATCH/511023/C47255-P107/C47255-P107.minimised.mol

>  <scratch_subdir>  (1402) 
/opt/xchem-fragalysis-2/maxwin/BulkDock/SCRATCH/511023/C47255-P107

>  <fragmenstein_runtime>  (1402) 
23.51353359222412

>  <fragmenstein_outcome>  (1402) 
too moved

>  <fragmenstein_mode>  (1402) 
expansion

>  <fragmenstein_error>  (1402) 


$$$$
C47255-P80
     RDKit          3D

 38 41  0  0  0  0  0  0  0  0999 V2000
    0.9493  -14.1134   23.5438 O   0  0  0  0  0  0  0  0  0  0  0  0
   -0.1722  -13.7024   23.3962 C   0  0  0  0  0  0  0  0  0  0  0  0
   -0.4693  -11.9796   22.4956 N   0  0  0  0  0  0  0  0  0  0  0  0
    0.6735  -10.6799   21.8754 C   0  0  0  0  0  0  0  0  0  0  0  0
    1.5932   -9.2501   20.9400 C   0  0  0  0  0  0  0  0  0  0  0  0
    2.7916   -8.4837   22.2390 C   0  0  0  0  0  0  0  0  0  0  0  0
    4.7556   -8.0139   21.9431 C   0  0  0  0  0  0  0  0  0  0  0  0
    5.2428   -7.9471   19.8719 C   0  0  0  0  0  0  0  0  0  0  0  0
    4.1891   -8.8560   18.5041 C   0  0  0  0  0  0  0  0  0  0  0  0
    2.3535   -9.1228   19.1193 C   0  0  0  0  0  0  0  0  0  0  0  0
    1.7470   -8.0533   18.1400 C   0  0  0  0  0  0  0  0  0  0  0  0
    1.9141   -8.0811   16.8202 N   0  0  0  0  0  0  0  0  0  0  0  0
    1.8937   -6.7812   16.3804 C   0  0  0  0  0  0  0  0  0  0  0  0
    1.7145   -5.9235   17.4321 C   0  0  0  0  0  0  0  0  0  0  0  0
    1.5549   -6.7351   18.5251 N   0  0  0  0  0  0  0  0  0  0  0  0
   -1.3222  -14.7966   24.2761 C   0  0  0  0  0  0  0  0  0  0  0  0
   -2.5320  -15.4765   24.3502 C   0  0  0  0  0  0  0  0  0  0  0  0
   -2.6499  -16.1560   25.5559 N   0  0  0  0  0  0  0  0  0  0  0  0
   -2.7363  -17.4791   26.2892 C   0  0  0  0  0  0  0  0  0  0  0  0
   -2.6266  -17.5921   27.6212 C   0  0  0  0  0  0  0  0  0  0  0  0
   -2.2524  -16.3651   28.3380 C   0  0  0  0  0  0  0  0  0  0  0  0
   -2.0039  -15.2057   27.8101 N   0  0  0  0  0  0  0  0  0  0  0  0
   -2.1698  -14.9785   26.4171 C   0  0  0  0  0  0  0  0  0  0  0  0
   -1.7549  -14.1003   25.5140 N   0  0  0  0  0  0  0  0  0  0  0  0
   -1.4187  -11.8339   22.3800 H   0  0  0  0  0  0  0  0  0  0  0  0
    0.0679   -9.9089   22.4276 H   0  0  0  0  0  0  0  0  0  0  0  0
   -0.1013  -10.5110   21.1081 H   0  0  0  0  0  0  0  0  0  0  0  0
    2.4331   -8.2927   23.2402 H   0  0  0  0  0  0  0  0  0  0  0  0
    5.2361   -7.3815   22.7604 H   0  0  0  0  0  0  0  0  0  0  0  0
    6.3045   -7.7863   19.4493 H   0  0  0  0  0  0  0  0  0  0  0  0
    4.3940   -8.6211   17.4579 H   0  0  0  0  0  0  0  0  0  0  0  0
    2.0278   -6.5396   15.3345 H   0  0  0  0  0  0  0  0  0  0  0  0
    1.6723   -4.8470   17.5068 H   0  0  0  0  0  0  0  0  0  0  0  0
    1.5332   -6.4189   19.4826 H   0  0  0  0  0  0  0  0  0  0  0  0
   -3.3593  -15.1788   23.7556 H   0  0  0  0  0  0  0  0  0  0  0  0
   -2.8450  -18.4144   25.7790 H   0  0  0  0  0  0  0  0  0  0  0  0
   -2.6784  -18.5252   28.1655 H   0  0  0  0  0  0  0  0  0  0  0  0
   -2.1378  -16.4747   29.4293 H   0  0  0  0  0  0  0  0  0  0  0  0
  1  2  2  0
  2  3  1  0
  3  4  1  0
  4  5  1  0
  5  6  2  0
  6  7  1  0
  7  8  2  0
  8  9  1  0
  9 10  2  0
 10 11  1  0
 11 12  2  0
 12 13  1  0
 13 14  2  0
 14 15  1  0
  2 16  1  0
 16 17  2  0
 17 18  1  0
 18 19  1  0
 19 20  2  0
 20 21  1  0
 21 22  2  0
 22 23  1  0
 23 24  2  0
 10  5  1  0
 15 11  1  0
 24 16  1  0
 23 18  1  0
  3 25  1  0
  4 26  1  0
  4 27  1  0
  6 28  1  0
  7 29  1  0
  8 30  1  0
  9 31  1  0
 13 32  1  0
 14 33  1  0
 15 34  1  0
 17 35  1  0
 19 36  1  0
 20 37  1  0
 21 38  1  0
M  END
>  <Energy>  (1403) 
1204.8981467997335

>  <compound_id>  (1403) 
47255

>  <target_id>  (1403) 
1

>  <reference_id>  (1403) 
80

>  <inspiration_ids>  (1403) 
[107, 80]

>  <energy_score>  (1403) 
1126.7173496275584

>  <distance_score>  (1403) 
12.692903213219301

>  <path>  (1403) 
/opt/xchem-fragalysis-2/maxwin/BulkDock/SCRATCH/511023/C47255-P80/C47255-P80.minimised.mol

>  <scratch_subdir>  (1403) 
/opt/xchem-fragalysis-2/maxwin/BulkDock/SCRATCH/511023/C47255-P80

>  <fragmenstein_runtime>  (1403) 
21.419390439987183

>  <fragmenstein_outcome>  (1403) 
too moved

>  <fragmenstein_mode>  (1403) 
expansion

>  <fragmenstein_error>  (1403) 


$$$$
C47256-P107
     RDKit          3D

 35 38  0  0  0  0  0  0  0  0999 V2000
   -1.8013  -14.8786   28.2242 O   0  0  0  0  0  0  0  0  0  0  0  0
   -2.0974  -15.3710   27.1764 C   0  0  0  0  0  0  0  0  0  0  0  0
   -2.3105  -14.6607   25.6717 N   0  0  0  0  0  0  0  0  0  0  0  0
   -2.0989  -13.0049   25.1541 C   0  0  0  0  0  0  0  0  0  0  0  0
   -0.7636  -13.7867   23.9221 C   0  0  0  0  0  0  0  0  0  0  0  0
   -0.4600  -12.4448   22.5340 C   0  0  0  0  0  0  0  0  0  0  0  0
   -1.7458  -11.1872   21.6716 C   0  0  0  0  0  0  0  0  0  0  0  0
   -1.1008   -9.9443   21.1957 C   0  0  0  0  0  0  0  0  0  0  0  0
    0.1776   -9.6238   21.3011 N   0  0  0  0  0  0  0  0  0  0  0  0
    0.1685   -8.4852   22.0069 C   0  0  0  0  0  0  0  0  0  0  0  0
   -1.1065   -8.2969   22.4125 C   0  0  0  0  0  0  0  0  0  0  0  0
   -1.7928   -8.7861   21.3411 N   0  0  0  0  0  0  0  0  0  0  0  0
   -3.3785  -10.6071   22.5856 C   0  0  0  0  0  0  0  0  0  0  0  0
   -3.3783  -11.7376   24.2827 C   0  0  0  0  0  0  0  0  0  0  0  0
   -2.4883  -17.0742   27.2060 C   0  0  0  0  0  0  0  0  0  0  0  0
   -3.5289  -17.7346   27.9377 C   0  0  0  0  0  0  0  0  0  0  0  0
   -3.1885  -19.1260   27.9227 N   0  0  0  0  0  0  0  0  0  0  0  0
   -3.6162  -20.1658   28.7367 C   0  0  0  0  0  0  0  0  0  0  0  0
   -3.0534  -21.3726   28.5896 C   0  0  0  0  0  0  0  0  0  0  0  0
   -2.1059  -21.4945   27.4552 C   0  0  0  0  0  0  0  0  0  0  0  0
   -1.6443  -20.5260   26.7279 N   0  0  0  0  0  0  0  0  0  0  0  0
   -2.1087  -19.2810   27.0437 C   0  0  0  0  0  0  0  0  0  0  0  0
   -1.6667  -18.0988   26.6425 N   0  0  0  0  0  0  0  0  0  0  0  0
   -2.4803  -15.3799   24.9704 H   0  0  0  0  0  0  0  0  0  0  0  0
   -1.1043  -14.7816   23.6012 H   0  0  0  0  0  0  0  0  0  0  0  0
    0.4437  -11.7017   22.7172 H   0  0  0  0  0  0  0  0  0  0  0  0
    1.0437   -8.0400   22.4039 H   0  0  0  0  0  0  0  0  0  0  0  0
   -1.5593   -7.7816   23.2391 H   0  0  0  0  0  0  0  0  0  0  0  0
   -2.7883   -8.6853   21.2362 H   0  0  0  0  0  0  0  0  0  0  0  0
   -4.1319   -9.9984   22.1105 H   0  0  0  0  0  0  0  0  0  0  0  0
   -4.4171  -12.0223   24.5010 H   0  0  0  0  0  0  0  0  0  0  0  0
   -4.2251  -17.4003   28.6940 H   0  0  0  0  0  0  0  0  0  0  0  0
   -4.3024  -19.9054   29.5303 H   0  0  0  0  0  0  0  0  0  0  0  0
   -3.1910  -22.2200   29.2393 H   0  0  0  0  0  0  0  0  0  0  0  0
   -1.7620  -22.5210   27.2450 H   0  0  0  0  0  0  0  0  0  0  0  0
  1  2  2  0
  2  3  1  0
  3  4  1  0
  4  5  2  0
  5  6  1  0
  6  7  2  0
  7  8  1  0
  8  9  2  0
  9 10  1  0
 10 11  2  0
 11 12  1  0
  7 13  1  0
 13 14  2  0
  2 15  1  0
 15 16  2  0
 16 17  1  0
 17 18  1  0
 18 19  2  0
 19 20  1  0
 20 21  2  0
 21 22  1  0
 22 23  2  0
 14  4  1  0
 23 15  1  0
 12  8  1  0
 22 17  1  0
  3 24  1  0
  5 25  1  0
  6 26  1  0
 10 27  1  0
 11 28  1  0
 12 29  1  0
 13 30  1  0
 14 31  1  0
 16 32  1  0
 18 33  1  0
 19 34  1  0
 20 35  1  0
M  END
>  <Energy>  (1404) 
901.78647588144622

>  <compound_id>  (1404) 
47256

>  <target_id>  (1404) 
1

>  <reference_id>  (1404) 
107

>  <inspiration_ids>  (1404) 
[107, 80]

>  <energy_score>  (1404) 
808.4462458748936

>  <distance_score>  (1404) 
12.825387259497028

>  <path>  (1404) 
/opt/xchem-fragalysis-2/maxwin/BulkDock/SCRATCH/511023/C47256-P107/C47256-P107.minimised.mol

>  <scratch_subdir>  (1404) 
/opt/xchem-fragalysis-2/maxwin/BulkDock/SCRATCH/511023/C47256-P107

>  <fragmenstein_runtime>  (1404) 
37.000566244125366

>  <fragmenstein_outcome>  (1404) 
too moved

>  <fragmenstein_mode>  (1404) 
expansion

>  <fragmenstein_error>  (1404) 


$$$$
C47256-P80
     RDKit          3D

 35 38  0  0  0  0  0  0  0  0999 V2000
   -5.1743  -18.2027   28.9136 O   0  0  0  0  0  0  0  0  0  0  0  0
   -5.0779  -19.0573   29.7423 C   0  0  0  0  0  0  0  0  0  0  0  0
   -3.9252  -19.9299   30.1013 N   0  0  0  0  0  0  0  0  0  0  0  0
   -2.6195  -20.0702   29.4918 C   0  0  0  0  0  0  0  0  0  0  0  0
   -2.4653  -19.8978   28.1037 C   0  0  0  0  0  0  0  0  0  0  0  0
   -1.1911  -19.7690   27.4474 C   0  0  0  0  0  0  0  0  0  0  0  0
    0.0162  -19.8155   28.1605 C   0  0  0  0  0  0  0  0  0  0  0  0
    1.3165  -19.2423   27.5868 C   0  0  0  0  0  0  0  0  0  0  0  0
    2.0722  -18.2817   28.1202 N   0  0  0  0  0  0  0  0  0  0  0  0
    3.1435  -18.0651   27.2759 C   0  0  0  0  0  0  0  0  0  0  0  0
    3.0503  -18.8789   26.1782 C   0  0  0  0  0  0  0  0  0  0  0  0
    1.8854  -19.5931   26.3674 N   0  0  0  0  0  0  0  0  0  0  0  0
   -0.1351  -20.1961   29.5221 C   0  0  0  0  0  0  0  0  0  0  0  0
   -1.4298  -20.3514   30.1728 C   0  0  0  0  0  0  0  0  0  0  0  0
   -6.5430  -19.3368   30.4898 C   0  0  0  0  0  0  0  0  0  0  0  0
   -7.0191  -20.9524   31.6923 C   0  0  0  0  0  0  0  0  0  0  0  0
   -9.0783  -20.8358   31.8122 N   0  0  0  0  0  0  0  0  0  0  0  0
  -10.1354  -21.9659   32.2457 C   0  0  0  0  0  0  0  0  0  0  0  0
  -11.3151  -22.2301   31.6817 C   0  0  0  0  0  0  0  0  0  0  0  0
  -11.6229  -21.6368   30.3859 C   0  0  0  0  0  0  0  0  0  0  0  0
  -10.9132  -20.8643   29.6458 N   0  0  0  0  0  0  0  0  0  0  0  0
   -9.6831  -20.4147   30.0417 C   0  0  0  0  0  0  0  0  0  0  0  0
   -8.2266  -19.3423   29.2641 N   0  0  0  0  0  0  0  0  0  0  0  0
   -4.1679  -20.4838   30.9075 H   0  0  0  0  0  0  0  0  0  0  0  0
   -3.3622  -19.7760   27.5043 H   0  0  0  0  0  0  0  0  0  0  0  0
   -1.2038  -19.4909   26.3976 H   0  0  0  0  0  0  0  0  0  0  0  0
    3.9060  -17.3357   27.5140 H   0  0  0  0  0  0  0  0  0  0  0  0
    3.6606  -19.0101   25.2966 H   0  0  0  0  0  0  0  0  0  0  0  0
    1.5058  -20.2818   25.7341 H   0  0  0  0  0  0  0  0  0  0  0  0
    0.7564  -20.2552   30.1471 H   0  0  0  0  0  0  0  0  0  0  0  0
   -1.4467  -20.5408   31.2432 H   0  0  0  0  0  0  0  0  0  0  0  0
   -6.6995  -21.1056   32.7447 H   0  0  0  0  0  0  0  0  0  0  0  0
   -9.7413  -22.7259   32.9236 H   0  0  0  0  0  0  0  0  0  0  0  0
  -11.9335  -23.0625   32.0053 H   0  0  0  0  0  0  0  0  0  0  0  0
  -12.5887  -21.9647   29.9779 H   0  0  0  0  0  0  0  0  0  0  0  0
  1  2  2  0
  2  3  1  0
  3  4  1  0
  4  5  2  0
  5  6  1  0
  6  7  2  0
  7  8  1  0
  8  9  2  0
  9 10  1  0
 10 11  2  0
 11 12  1  0
  7 13  1  0
 13 14  2  0
  2 15  1  0
 15 16  2  0
 16 17  1  0
 17 18  1  0
 18 19  2  0
 19 20  1  0
 20 21  2  0
 21 22  1  0
 22 23  2  0
 14  4  1  0
 23 15  1  0
 12  8  1  0
 22 17  1  0
  3 24  1  0
  5 25  1  0
  6 26  1  0
 10 27  1  0
 11 28  1  0
 12 29  1  0
 13 30  1  0
 14 31  1  0
 16 32  1  0
 18 33  1  0
 19 34  1  0
 20 35  1  0
M  END
>  <Energy>  (1405) 
850.17211348987917

>  <compound_id>  (1405) 
47256

>  <target_id>  (1405) 
1

>  <reference_id>  (1405) 
80

>  <inspiration_ids>  (1405) 
[107, 80]

>  <energy_score>  (1405) 
756.8318834833209

>  <distance_score>  (1405) 
13.800433086705292

>  <path>  (1405) 
/opt/xchem-fragalysis-2/maxwin/BulkDock/SCRATCH/511023/C47256-P80/C47256-P80.minimised.mol

>  <scratch_subdir>  (1405) 
/opt/xchem-fragalysis-2/maxwin/BulkDock/SCRATCH/511023/C47256-P80

>  <fragmenstein_runtime>  (1405) 
22.97936463356018

>  <fragmenstein_outcome>  (1405) 
too moved

>  <fragmenstein_mode>  (1405) 
expansion

>  <fragmenstein_error>  (1405) 


$$$$
C47257-P107
     RDKit          3D

 35 38  0  0  0  0  0  0  0  0999 V2000
   -1.3919  -13.0046   25.4881 O   0  0  0  0  0  0  0  0  0  0  0  0
   -1.2005  -13.8502   24.7176 C   0  0  0  0  0  0  0  0  0  0  0  0
   -0.2579  -13.2154   23.0797 N   0  0  0  0  0  0  0  0  0  0  0  0
    0.2503  -11.3576   22.4995 C   0  0  0  0  0  0  0  0  0  0  0  0
   -0.5993  -10.0664   22.4883 C   0  0  0  0  0  0  0  0  0  0  0  0
   -0.3580   -8.5966   22.3307 C   0  0  0  0  0  0  0  0  0  0  0  0
    0.5227   -8.1293   21.4009 C   0  0  0  0  0  0  0  0  0  0  0  0
    0.8533   -9.0763   20.5174 C   0  0  0  0  0  0  0  0  0  0  0  0
    1.7204   -8.9380   18.8597 C   0  0  0  0  0  0  0  0  0  0  0  0
    2.0529   -9.7910   17.8902 N   0  0  0  0  0  0  0  0  0  0  0  0
    3.0550   -9.5400   16.9757 C   0  0  0  0  0  0  0  0  0  0  0  0
    3.5385   -8.3881   17.3860 C   0  0  0  0  0  0  0  0  0  0  0  0
    2.4842   -7.9991   18.2391 N   0  0  0  0  0  0  0  0  0  0  0  0
    0.4563  -10.5548   21.2585 C   0  0  0  0  0  0  0  0  0  0  0  0
   -2.0594  -15.3208   25.2927 C   0  0  0  0  0  0  0  0  0  0  0  0
   -1.9766  -15.2015   27.2184 C   0  0  0  0  0  0  0  0  0  0  0  0
   -2.2577  -15.8749   28.3103 N   0  0  0  0  0  0  0  0  0  0  0  0
   -2.5165  -17.1536   28.1271 C   0  0  0  0  0  0  0  0  0  0  0  0
   -2.6521  -18.1339   28.9900 N   0  0  0  0  0  0  0  0  0  0  0  0
   -2.3474  -19.2598   28.2837 C   0  0  0  0  0  0  0  0  0  0  0  0
   -2.0029  -18.9351   26.9874 C   0  0  0  0  0  0  0  0  0  0  0  0
   -2.3712  -17.5824   26.8454 N   0  0  0  0  0  0  0  0  0  0  0  0
   -2.5855  -16.6751   25.4864 C   0  0  0  0  0  0  0  0  0  0  0  0
   -0.0505  -14.0275   22.4918 H   0  0  0  0  0  0  0  0  0  0  0  0
   -1.6125  -10.1044   21.9854 H   0  0  0  0  0  0  0  0  0  0  0  0
   -0.9292   -7.9799   23.0066 H   0  0  0  0  0  0  0  0  0  0  0  0
    0.8643   -7.1230   21.4025 H   0  0  0  0  0  0  0  0  0  0  0  0
    3.3989  -10.2493   16.2412 H   0  0  0  0  0  0  0  0  0  0  0  0
    4.3972   -7.7770   17.1444 H   0  0  0  0  0  0  0  0  0  0  0  0
    2.5532   -7.1672   18.7724 H   0  0  0  0  0  0  0  0  0  0  0  0
   -0.5365  -10.8565   20.6749 H   0  0  0  0  0  0  0  0  0  0  0  0
   -1.1213  -14.6486   27.5452 H   0  0  0  0  0  0  0  0  0  0  0  0
   -2.3566  -20.2363   28.7491 H   0  0  0  0  0  0  0  0  0  0  0  0
   -1.7199  -19.5386   26.1414 H   0  0  0  0  0  0  0  0  0  0  0  0
   -2.3405  -17.4820   24.9174 H   0  0  0  0  0  0  0  0  0  0  0  0
  1  2  2  0
  2  3  1  0
  3  4  1  0
  4  5  2  0
  5  6  1  0
  6  7  2  0
  7  8  1  0
  8  9  1  0
  9 10  2  0
 10 11  1  0
 11 12  2  0
 12 13  1  0
  8 14  2  0
  2 15  1  0
 15 16  1  0
 16 17  2  0
 17 18  1  0
 18 19  2  0
 19 20  1  0
 20 21  2  0
 21 22  1  0
 22 23  1  0
 14  4  1  0
 23 15  2  0
 13  9  1  0
 22 18  1  0
  3 24  1  0
  5 25  1  0
  6 26  1  0
  7 27  1  0
 11 28  1  0
 12 29  1  0
 13 30  1  0
 14 31  1  0
 16 32  1  0
 20 33  1  0
 21 34  1  0
 23 35  1  0
M  END
>  <Energy>  (1406) 
842.71606824290757

>  <compound_id>  (1406) 
47257

>  <target_id>  (1406) 
1

>  <reference_id>  (1406) 
107

>  <inspiration_ids>  (1406) 
[107, 80]

>  <energy_score>  (1406) 
776.9761318561721

>  <distance_score>  (1406) 
12.357183376171312

>  <path>  (1406) 
/opt/xchem-fragalysis-2/maxwin/BulkDock/SCRATCH/511023/C47257-P107/C47257-P107.minimised.mol

>  <scratch_subdir>  (1406) 
/opt/xchem-fragalysis-2/maxwin/BulkDock/SCRATCH/511023/C47257-P107

>  <fragmenstein_runtime>  (1406) 
21.512325763702393

>  <fragmenstein_outcome>  (1406) 
too moved

>  <fragmenstein_mode>  (1406) 
expansion

>  <fragmenstein_error>  (1406) 


$$$$
C47257-P80
     RDKit          3D

 35 38  0  0  0  0  0  0  0  0999 V2000
   -0.3309  -14.0722   24.3698 O   0  0  0  0  0  0  0  0  0  0  0  0
    0.5241  -14.8904   24.4115 C   0  0  0  0  0  0  0  0  0  0  0  0
    2.4489  -14.1301   23.5415 N   0  0  0  0  0  0  0  0  0  0  0  0
    3.2351  -12.2196   22.7462 C   0  0  0  0  0  0  0  0  0  0  0  0
    4.3247  -10.4305   22.7372 C   0  0  0  0  0  0  0  0  0  0  0  0
    4.8258   -8.3961   21.9963 C   0  0  0  0  0  0  0  0  0  0  0  0
    5.0438   -8.4864   19.7658 C   0  0  0  0  0  0  0  0  0  0  0  0
    5.4065  -10.6322   19.9400 C   0  0  0  0  0  0  0  0  0  0  0  0
    6.4839  -11.0599   18.9344 C   0  0  0  0  0  0  0  0  0  0  0  0
    7.3672  -10.2039   18.4371 N   0  0  0  0  0  0  0  0  0  0  0  0
    8.0662  -10.9071   17.4927 C   0  0  0  0  0  0  0  0  0  0  0  0
    7.6198  -12.2028   17.4314 C   0  0  0  0  0  0  0  0  0  0  0  0
    6.6177  -12.2889   18.3628 N   0  0  0  0  0  0  0  0  0  0  0  0
    4.4753  -11.9303   21.2040 C   0  0  0  0  0  0  0  0  0  0  0  0
   -0.4813  -17.0183   25.2211 C   0  0  0  0  0  0  0  0  0  0  0  0
    0.2807  -18.8455   25.3854 C   0  0  0  0  0  0  0  0  0  0  0  0
   -0.0881  -19.9966   25.8529 N   0  0  0  0  0  0  0  0  0  0  0  0
   -1.1676  -20.0656   26.6323 C   0  0  0  0  0  0  0  0  0  0  0  0
   -1.6746  -21.0825   27.3030 N   0  0  0  0  0  0  0  0  0  0  0  0
   -2.5985  -20.5418   28.1536 C   0  0  0  0  0  0  0  0  0  0  0  0
   -2.6437  -19.1834   27.9810 C   0  0  0  0  0  0  0  0  0  0  0  0
   -1.8225  -18.9106   26.8897 N   0  0  0  0  0  0  0  0  0  0  0  0
   -1.6243  -17.6898   26.2140 C   0  0  0  0  0  0  0  0  0  0  0  0
    3.1288  -14.8896   23.5184 H   0  0  0  0  0  0  0  0  0  0  0  0
    3.4720  -10.0216   23.2706 H   0  0  0  0  0  0  0  0  0  0  0  0
    4.9870   -7.5834   22.7614 H   0  0  0  0  0  0  0  0  0  0  0  0
    5.7432   -7.9124   19.0991 H   0  0  0  0  0  0  0  0  0  0  0  0
    8.8444  -10.4556   16.8936 H   0  0  0  0  0  0  0  0  0  0  0  0
    7.9030  -13.0451   16.8169 H   0  0  0  0  0  0  0  0  0  0  0  0
    6.0269  -13.0884   18.5484 H   0  0  0  0  0  0  0  0  0  0  0  0
    4.6292  -12.9036   20.6847 H   0  0  0  0  0  0  0  0  0  0  0  0
    1.2699  -18.9262   24.8977 H   0  0  0  0  0  0  0  0  0  0  0  0
   -3.1537  -21.1470   28.8568 H   0  0  0  0  0  0  0  0  0  0  0  0
   -3.2293  -18.4119   28.4600 H   0  0  0  0  0  0  0  0  0  0  0  0
   -2.3752  -17.0150   26.6400 H   0  0  0  0  0  0  0  0  0  0  0  0
  1  2  2  0
  2  3  1  0
  3  4  1  0
  4  5  2  0
  5  6  1  0
  6  7  2  0
  7  8  1  0
  8  9  1  0
  9 10  2  0
 10 11  1  0
 11 12  2  0
 12 13  1  0
  8 14  2  0
  2 15  1  0
 15 16  1  0
 16 17  2  0
 17 18  1  0
 18 19  2  0
 19 20  1  0
 20 21  2  0
 21 22  1  0
 22 23  1  0
 14  4  1  0
 23 15  2  0
 13  9  1  0
 22 18  1  0
  3 24  1  0
  5 25  1  0
  6 26  1  0
  7 27  1  0
 11 28  1  0
 12 29  1  0
 13 30  1  0
 14 31  1  0
 16 32  1  0
 20 33  1  0
 21 34  1  0
 23 35  1  0
M  END
>  <Energy>  (1407) 
2854.3392834873971

>  <compound_id>  (1407) 
47257

>  <target_id>  (1407) 
1

>  <reference_id>  (1407) 
80

>  <inspiration_ids>  (1407) 
[107, 80]

>  <energy_score>  (1407) 
2788.5993471006145

>  <distance_score>  (1407) 
11.88716488293529

>  <path>  (1407) 
/opt/xchem-fragalysis-2/maxwin/BulkDock/SCRATCH/511023/C47257-P80/C47257-P80.minimised.mol

>  <scratch_subdir>  (1407) 
/opt/xchem-fragalysis-2/maxwin/BulkDock/SCRATCH/511023/C47257-P80

>  <fragmenstein_runtime>  (1407) 
24.30683398246765

>  <fragmenstein_outcome>  (1407) 
too moved

>  <fragmenstein_mode>  (1407) 
expansion

>  <fragmenstein_error>  (1407) 


$$$$
C47258-P107
     RDKit          3D

 35 38  0  0  0  0  0  0  0  0999 V2000
    0.0126  -20.3842   20.3672 O   0  0  0  0  0  0  0  0  0  0  0  0
   -0.5065  -19.4744   19.7662 C   0  0  0  0  0  0  0  0  0  0  0  0
    0.0719  -18.5051   18.7891 N   0  0  0  0  0  0  0  0  0  0  0  0
    1.4036  -18.4299   18.1978 C   0  0  0  0  0  0  0  0  0  0  0  0
    2.0270  -19.7180   18.2724 C   0  0  0  0  0  0  0  0  0  0  0  0
    3.2588  -20.0618   17.7087 C   0  0  0  0  0  0  0  0  0  0  0  0
    3.9508  -19.1201   16.9967 C   0  0  0  0  0  0  0  0  0  0  0  0
    3.4094  -17.8455   16.9012 C   0  0  0  0  0  0  0  0  0  0  0  0
    2.1696  -17.4261   17.5092 C   0  0  0  0  0  0  0  0  0  0  0  0
    2.0706  -15.9343   17.2937 C   0  0  0  0  0  0  0  0  0  0  0  0
    1.6117  -15.3491   16.1914 N   0  0  0  0  0  0  0  0  0  0  0  0
    2.4248  -14.2620   15.9313 C   0  0  0  0  0  0  0  0  0  0  0  0
    3.3325  -14.0886   16.9421 C   0  0  0  0  0  0  0  0  0  0  0  0
    3.0134  -15.0617   17.8587 N   0  0  0  0  0  0  0  0  0  0  0  0
   -2.0449  -19.4640   20.0420 C   0  0  0  0  0  0  0  0  0  0  0  0
   -3.1600  -18.5919   19.5606 C   0  0  0  0  0  0  0  0  0  0  0  0
   -4.4416  -18.7155   19.7997 N   0  0  0  0  0  0  0  0  0  0  0  0
   -4.8478  -19.7558   20.5950 C   0  0  0  0  0  0  0  0  0  0  0  0
   -6.0522  -20.0936   21.0195 N   0  0  0  0  0  0  0  0  0  0  0  0
   -5.8865  -21.2158   21.7900 C   0  0  0  0  0  0  0  0  0  0  0  0
   -4.5574  -21.5580   21.8751 C   0  0  0  0  0  0  0  0  0  0  0  0
   -3.8986  -20.6364   21.0942 N   0  0  0  0  0  0  0  0  0  0  0  0
   -2.5373  -20.4880   20.8083 C   0  0  0  0  0  0  0  0  0  0  0  0
   -0.6326  -17.8204   18.5434 H   0  0  0  0  0  0  0  0  0  0  0  0
    1.5221  -20.5572   18.7458 H   0  0  0  0  0  0  0  0  0  0  0  0
    3.6381  -21.0758   17.8037 H   0  0  0  0  0  0  0  0  0  0  0  0
    4.8939  -19.3599   16.5149 H   0  0  0  0  0  0  0  0  0  0  0  0
    3.9888  -17.1231   16.3183 H   0  0  0  0  0  0  0  0  0  0  0  0
    2.3014  -13.6733   15.0308 H   0  0  0  0  0  0  0  0  0  0  0  0
    4.1238  -13.3713   17.1203 H   0  0  0  0  0  0  0  0  0  0  0  0
    3.5364  -15.2346   18.7106 H   0  0  0  0  0  0  0  0  0  0  0  0
   -2.8479  -17.7481   18.9241 H   0  0  0  0  0  0  0  0  0  0  0  0
   -6.7369  -21.7198   22.2285 H   0  0  0  0  0  0  0  0  0  0  0  0
   -4.0440  -22.3619   22.3815 H   0  0  0  0  0  0  0  0  0  0  0  0
   -1.9036  -21.2544   21.2416 H   0  0  0  0  0  0  0  0  0  0  0  0
  1  2  2  0
  2  3  1  0
  3  4  1  0
  4  5  2  0
  5  6  1  0
  6  7  2  0
  7  8  1  0
  8  9  2  0
  9 10  1  0
 10 11  2  0
 11 12  1  0
 12 13  2  0
 13 14  1  0
  2 15  1  0
 15 16  1  0
 16 17  2  0
 17 18  1  0
 18 19  2  0
 19 20  1  0
 20 21  2  0
 21 22  1  0
 22 23  1  0
  9  4  1  0
 14 10  1  0
 23 15  2  0
 22 18  1  0
  3 24  1  0
  5 25  1  0
  6 26  1  0
  7 27  1  0
  8 28  1  0
 12 29  1  0
 13 30  1  0
 14 31  1  0
 16 32  1  0
 20 33  1  0
 21 34  1  0
 23 35  1  0
M  END
>  <Energy>  (1408) 
96.152279112978519

>  <compound_id>  (1408) 
47258

>  <target_id>  (1408) 
1

>  <reference_id>  (1408) 
107

>  <inspiration_ids>  (1408) 
[107, 80]

>  <energy_score>  (1408) 
8.690479330297421

>  <distance_score>  (1408) 
14.292407594127713

>  <path>  (1408) 
/opt/xchem-fragalysis-2/maxwin/BulkDock/SCRATCH/511023/C47258-P107/C47258-P107.minimised.mol

>  <scratch_subdir>  (1408) 
/opt/xchem-fragalysis-2/maxwin/BulkDock/SCRATCH/511023/C47258-P107

>  <fragmenstein_runtime>  (1408) 
32.93968653678894

>  <fragmenstein_outcome>  (1408) 
too moved

>  <fragmenstein_mode>  (1408) 
expansion

>  <fragmenstein_error>  (1408) 


$$$$
C47258-P80
     RDKit          3D

 35 38  0  0  0  0  0  0  0  0999 V2000
    0.5540  -16.1415   20.2772 O   0  0  0  0  0  0  0  0  0  0  0  0
   -0.3555  -16.2036   21.1060 C   0  0  0  0  0  0  0  0  0  0  0  0
   -0.9116  -14.7958   22.2715 N   0  0  0  0  0  0  0  0  0  0  0  0
   -0.3602  -12.9229   22.3854 C   0  0  0  0  0  0  0  0  0  0  0  0
   -1.5154  -12.6920   20.8729 C   0  0  0  0  0  0  0  0  0  0  0  0
   -2.2229  -11.8730   19.7569 C   0  0  0  0  0  0  0  0  0  0  0  0
   -2.5461  -10.6248   19.9737 C   0  0  0  0  0  0  0  0  0  0  0  0
   -2.1034  -10.3768   21.1974 C   0  0  0  0  0  0  0  0  0  0  0  0
   -0.8638  -11.1593   21.9227 C   0  0  0  0  0  0  0  0  0  0  0  0
   -0.0309   -9.9407   22.0680 C   0  0  0  0  0  0  0  0  0  0  0  0
   -0.3889   -8.8524   22.7018 N   0  0  0  0  0  0  0  0  0  0  0  0
   -0.7053   -8.1679   21.6665 C   0  0  0  0  0  0  0  0  0  0  0  0
    0.2206   -8.3000   20.6953 C   0  0  0  0  0  0  0  0  0  0  0  0
    0.8410   -9.3942   21.1704 N   0  0  0  0  0  0  0  0  0  0  0  0
   -1.1894  -17.7526   20.9451 C   0  0  0  0  0  0  0  0  0  0  0  0
   -0.6729  -19.1642   21.2008 C   0  0  0  0  0  0  0  0  0  0  0  0
   -1.3583  -20.2687   21.3352 N   0  0  0  0  0  0  0  0  0  0  0  0
   -2.6844  -20.1887   21.0473 C   0  0  0  0  0  0  0  0  0  0  0  0
   -3.6769  -20.9965   21.3675 N   0  0  0  0  0  0  0  0  0  0  0  0
   -4.8065  -20.4390   20.8250 C   0  0  0  0  0  0  0  0  0  0  0  0
   -4.5038  -19.2653   20.1674 C   0  0  0  0  0  0  0  0  0  0  0  0
   -3.1576  -19.0562   20.3831 N   0  0  0  0  0  0  0  0  0  0  0  0
   -2.3887  -17.8699   20.2902 C   0  0  0  0  0  0  0  0  0  0  0  0
   -1.7253  -15.0830   22.7876 H   0  0  0  0  0  0  0  0  0  0  0  0
   -1.9420  -13.7149   20.6587 H   0  0  0  0  0  0  0  0  0  0  0  0
   -2.4646  -12.3171   18.7980 H   0  0  0  0  0  0  0  0  0  0  0  0
   -3.0704   -9.9569   19.3310 H   0  0  0  0  0  0  0  0  0  0  0  0
   -2.5227   -9.5116   21.6988 H   0  0  0  0  0  0  0  0  0  0  0  0
   -1.7251   -7.8447   21.6450 H   0  0  0  0  0  0  0  0  0  0  0  0
    0.2888   -8.0471   19.6571 H   0  0  0  0  0  0  0  0  0  0  0  0
    1.3504   -9.9469   20.5282 H   0  0  0  0  0  0  0  0  0  0  0  0
    0.4182  -19.2894   21.2361 H   0  0  0  0  0  0  0  0  0  0  0  0
   -5.7748  -20.9108   20.9350 H   0  0  0  0  0  0  0  0  0  0  0  0
   -5.1236  -18.5411   19.6601 H   0  0  0  0  0  0  0  0  0  0  0  0
   -2.8928  -17.0106   19.8704 H   0  0  0  0  0  0  0  0  0  0  0  0
  1  2  2  0
  2  3  1  0
  3  4  1  0
  4  5  2  0
  5  6  1  0
  6  7  2  0
  7  8  1  0
  8  9  2  0
  9 10  1  0
 10 11  2  0
 11 12  1  0
 12 13  2  0
 13 14  1  0
  2 15  1  0
 15 16  1  0
 16 17  2  0
 17 18  1  0
 18 19  2  0
 19 20  1  0
 20 21  2  0
 21 22  1  0
 22 23  1  0
  9  4  1  0
 14 10  1  0
 23 15  2  0
 22 18  1  0
  3 24  1  0
  5 25  1  0
  6 26  1  0
  7 27  1  0
  8 28  1  0
 12 29  1  0
 13 30  1  0
 14 31  1  0
 16 32  1  0
 20 33  1  0
 21 34  1  0
 23 35  1  0
M  END
>  <Energy>  (1409) 
708.20197312303378

>  <compound_id>  (1409) 
47258

>  <target_id>  (1409) 
1

>  <reference_id>  (1409) 
80

>  <inspiration_ids>  (1409) 
[107, 80]

>  <energy_score>  (1409) 
620.7401733403462

>  <distance_score>  (1409) 
14.76945430011392

>  <path>  (1409) 
/opt/xchem-fragalysis-2/maxwin/BulkDock/SCRATCH/511023/C47258-P80/C47258-P80.minimised.mol

>  <scratch_subdir>  (1409) 
/opt/xchem-fragalysis-2/maxwin/BulkDock/SCRATCH/511023/C47258-P80

>  <fragmenstein_runtime>  (1409) 
20.55054521560669

>  <fragmenstein_outcome>  (1409) 
too moved

>  <fragmenstein_mode>  (1409) 
expansion

>  <fragmenstein_error>  (1409) 


$$$$
C47252-P107
     RDKit          3D

 35 38  0  0  0  0  0  0  0  0999 V2000
    3.2605  -12.0483   22.5713 O   0  0  0  0  0  0  0  0  0  0  0  0
    2.1348  -11.7560   22.7878 C   0  0  0  0  0  0  0  0  0  0  0  0
    1.3551  -12.1102   23.6366 N   0  0  0  0  0  0  0  0  0  0  0  0
    1.4303  -13.3252   24.9132 C   0  0  0  0  0  0  0  0  0  0  0  0
   -0.0830  -14.2432   24.0615 C   0  0  0  0  0  0  0  0  0  0  0  0
   -1.2428  -14.9545   24.0309 N   0  0  0  0  0  0  0  0  0  0  0  0
   -2.1094  -15.2076   25.0120 C   0  0  0  0  0  0  0  0  0  0  0  0
   -2.7267  -16.3945   25.4497 N   0  0  0  0  0  0  0  0  0  0  0  0
   -2.4265  -16.6410   27.0394 C   0  0  0  0  0  0  0  0  0  0  0  0
   -1.9461  -15.3282   27.4317 C   0  0  0  0  0  0  0  0  0  0  0  0
   -1.6138  -14.3618   25.9831 N   0  0  0  0  0  0  0  0  0  0  0  0
    0.1089  -13.3955   25.9925 C   0  0  0  0  0  0  0  0  0  0  0  0
    0.7724  -10.5349   21.7088 C   0  0  0  0  0  0  0  0  0  0  0  0
   -0.7017  -10.6484   21.4907 C   0  0  0  0  0  0  0  0  0  0  0  0
   -1.6619   -9.6509   21.5139 C   0  0  0  0  0  0  0  0  0  0  0  0
   -1.2183   -8.5740   22.1607 C   0  0  0  0  0  0  0  0  0  0  0  0
    0.1202   -8.2739   22.0296 C   0  0  0  0  0  0  0  0  0  0  0  0
    0.9090   -9.1392   21.2865 C   0  0  0  0  0  0  0  0  0  0  0  0
    0.8953   -8.5936   19.6557 C   0  0  0  0  0  0  0  0  0  0  0  0
   -0.1372   -8.3280   18.8391 N   0  0  0  0  0  0  0  0  0  0  0  0
    0.4024   -8.3983   17.5223 C   0  0  0  0  0  0  0  0  0  0  0  0
    1.7584   -8.4867   17.5017 C   0  0  0  0  0  0  0  0  0  0  0  0
    1.9502   -8.8877   18.7449 N   0  0  0  0  0  0  0  0  0  0  0  0
    0.5839  -11.6115   23.5408 H   0  0  0  0  0  0  0  0  0  0  0  0
   -0.0040  -14.0702   22.9875 H   0  0  0  0  0  0  0  0  0  0  0  0
   -2.7071  -17.5686   27.5174 H   0  0  0  0  0  0  0  0  0  0  0  0
   -1.5838  -14.9386   28.3508 H   0  0  0  0  0  0  0  0  0  0  0  0
    0.6126  -13.5748   26.8614 H   0  0  0  0  0  0  0  0  0  0  0  0
   -1.2521  -11.5346   21.1521 H   0  0  0  0  0  0  0  0  0  0  0  0
   -2.7042   -9.8571   21.3261 H   0  0  0  0  0  0  0  0  0  0  0  0
   -1.9295   -7.9856   22.7052 H   0  0  0  0  0  0  0  0  0  0  0  0
    0.5298   -7.3447   22.3797 H   0  0  0  0  0  0  0  0  0  0  0  0
   -0.1351   -8.2253   16.6251 H   0  0  0  0  0  0  0  0  0  0  0  0
    2.5436   -8.3872   16.7731 H   0  0  0  0  0  0  0  0  0  0  0  0
    2.6548   -9.5669   18.8455 H   0  0  0  0  0  0  0  0  0  0  0  0
  1  2  2  0
  2  3  1  0
  3  4  1  0
  4  5  1  0
  5  6  2  0
  6  7  1  0
  7  8  2  0
  8  9  1  0
  9 10  2  0
 10 11  1  0
 11 12  1  0
  2 13  1  0
 13 14  2  0
 14 15  1  0
 15 16  2  0
 16 17  1  0
 17 18  2  0
 18 19  1  0
 19 20  2  0
 20 21  1  0
 21 22  2  0
 22 23  1  0
 12  4  2  0
 18 13  1  0
 23 19  1  0
 11  7  1  0
  3 24  1  0
  5 25  1  0
  9 26  1  0
 10 27  1  0
 12 28  1  0
 14 29  1  0
 15 30  1  0
 16 31  1  0
 17 32  1  0
 21 33  1  0
 22 34  1  0
 23 35  1  0
M  END
>  <Energy>  (1410) 
802.4040507001248

>  <compound_id>  (1410) 
47252

>  <target_id>  (1410) 
1

>  <reference_id>  (1410) 
107

>  <inspiration_ids>  (1410) 
[107, 80]

>  <energy_score>  (1410) 
694.612501679117

>  <distance_score>  (1410) 
14.434812165017078

>  <path>  (1410) 
/opt/xchem-fragalysis-2/maxwin/BulkDock/SCRATCH/511023/C47252-P107/C47252-P107.minimised.mol

>  <scratch_subdir>  (1410) 
/opt/xchem-fragalysis-2/maxwin/BulkDock/SCRATCH/511023/C47252-P107

>  <fragmenstein_runtime>  (1410) 
23.57496666908264

>  <fragmenstein_outcome>  (1410) 
too moved

>  <fragmenstein_mode>  (1410) 
expansion

>  <fragmenstein_error>  (1410) 


$$$$
C47252-P80
     RDKit          3D

 35 38  0  0  0  0  0  0  0  0999 V2000
   -2.5228   -9.1834   25.7419 O   0  0  0  0  0  0  0  0  0  0  0  0
   -2.5279   -9.2483   24.5573 C   0  0  0  0  0  0  0  0  0  0  0  0
   -3.7242  -10.4784   23.7129 N   0  0  0  0  0  0  0  0  0  0  0  0
   -5.1171  -11.6439   24.4293 C   0  0  0  0  0  0  0  0  0  0  0  0
   -6.6444  -11.1256   25.3772 C   0  0  0  0  0  0  0  0  0  0  0  0
   -7.3046  -11.7117   26.3347 N   0  0  0  0  0  0  0  0  0  0  0  0
   -7.5477  -12.9751   25.9888 C   0  0  0  0  0  0  0  0  0  0  0  0
   -8.2084  -13.9334   26.5965 N   0  0  0  0  0  0  0  0  0  0  0  0
   -8.7026  -14.6860   25.5824 C   0  0  0  0  0  0  0  0  0  0  0  0
   -8.3158  -14.1595   24.3637 C   0  0  0  0  0  0  0  0  0  0  0  0
   -7.3233  -13.2260   24.6388 N   0  0  0  0  0  0  0  0  0  0  0  0
   -6.2198  -12.4456   23.8653 C   0  0  0  0  0  0  0  0  0  0  0  0
   -1.3148   -7.9752   23.8995 C   0  0  0  0  0  0  0  0  0  0  0  0
   -0.6503   -7.9774   25.3830 C   0  0  0  0  0  0  0  0  0  0  0  0
   -0.6876   -7.2644   26.5903 C   0  0  0  0  0  0  0  0  0  0  0  0
   -1.2280   -6.1239   26.2737 C   0  0  0  0  0  0  0  0  0  0  0  0
   -1.3109   -5.9622   24.8866 C   0  0  0  0  0  0  0  0  0  0  0  0
   -0.6316   -6.8750   24.0962 C   0  0  0  0  0  0  0  0  0  0  0  0
    0.5299   -6.3816   23.2097 C   0  0  0  0  0  0  0  0  0  0  0  0
    0.8602   -5.1182   23.1983 N   0  0  0  0  0  0  0  0  0  0  0  0
    1.2773   -4.6385   22.0137 C   0  0  0  0  0  0  0  0  0  0  0  0
    1.3901   -5.7095   21.2126 C   0  0  0  0  0  0  0  0  0  0  0  0
    0.7821   -6.8370   21.9151 N   0  0  0  0  0  0  0  0  0  0  0  0
   -3.6674  -10.3490   22.6860 H   0  0  0  0  0  0  0  0  0  0  0  0
   -7.1374  -10.2110   25.0173 H   0  0  0  0  0  0  0  0  0  0  0  0
   -9.3764  -15.5122   25.7677 H   0  0  0  0  0  0  0  0  0  0  0  0
   -8.6728  -14.4400   23.3919 H   0  0  0  0  0  0  0  0  0  0  0  0
   -6.3651  -12.5383   22.8138 H   0  0  0  0  0  0  0  0  0  0  0  0
    0.4276   -8.0931   25.2918 H   0  0  0  0  0  0  0  0  0  0  0  0
   -0.1777   -7.5048   27.5041 H   0  0  0  0  0  0  0  0  0  0  0  0
   -1.3920   -5.3979   27.0486 H   0  0  0  0  0  0  0  0  0  0  0  0
   -1.7863   -5.1828   24.3170 H   0  0  0  0  0  0  0  0  0  0  0  0
    1.4656   -3.5851   21.9181 H   0  0  0  0  0  0  0  0  0  0  0  0
    1.8429   -5.8701   20.2588 H   0  0  0  0  0  0  0  0  0  0  0  0
    0.6439   -7.7789   21.5663 H   0  0  0  0  0  0  0  0  0  0  0  0
  1  2  2  0
  2  3  1  0
  3  4  1  0
  4  5  1  0
  5  6  2  0
  6  7  1  0
  7  8  2  0
  8  9  1  0
  9 10  2  0
 10 11  1  0
 11 12  1  0
  2 13  1  0
 13 14  2  0
 14 15  1  0
 15 16  2  0
 16 17  1  0
 17 18  2  0
 18 19  1  0
 19 20  2  0
 20 21  1  0
 21 22  2  0
 22 23  1  0
 12  4  2  0
 18 13  1  0
 23 19  1  0
 11  7  1  0
  3 24  1  0
  5 25  1  0
  9 26  1  0
 10 27  1  0
 12 28  1  0
 14 29  1  0
 15 30  1  0
 16 31  1  0
 17 32  1  0
 21 33  1  0
 22 34  1  0
 23 35  1  0
M  END
>  <Energy>  (1411) 
733.93629252090886

>  <compound_id>  (1411) 
47252

>  <target_id>  (1411) 
1

>  <reference_id>  (1411) 
80

>  <inspiration_ids>  (1411) 
[107, 80]

>  <energy_score>  (1411) 
626.1447434998948

>  <distance_score>  (1411) 
13.4616840009484

>  <path>  (1411) 
/opt/xchem-fragalysis-2/maxwin/BulkDock/SCRATCH/511023/C47252-P80/C47252-P80.minimised.mol

>  <scratch_subdir>  (1411) 
/opt/xchem-fragalysis-2/maxwin/BulkDock/SCRATCH/511023/C47252-P80

>  <fragmenstein_runtime>  (1411) 
25.046682119369507

>  <fragmenstein_outcome>  (1411) 
too moved

>  <fragmenstein_mode>  (1411) 
expansion

>  <fragmenstein_error>  (1411) 


$$$$
C47259-P107
     RDKit          3D

 32 35  0  0  0  0  0  0  0  0999 V2000
   -6.2524  -19.6635   21.9184 C   0  0  0  0  0  0  0  0  0  0  0  0
   -6.8185  -18.4082   22.4878 C   0  0  0  0  0  0  0  0  0  0  0  0
   -6.3867  -17.1999   22.2893 N   0  0  0  0  0  0  0  0  0  0  0  0
   -5.3359  -17.0718   21.4173 C   0  0  0  0  0  0  0  0  0  0  0  0
   -4.7743  -15.9792   20.9216 N   0  0  0  0  0  0  0  0  0  0  0  0
   -3.8179  -16.3681   19.9650 C   0  0  0  0  0  0  0  0  0  0  0  0
   -3.0927  -15.2708   19.0873 C   0  0  0  0  0  0  0  0  0  0  0  0
   -1.8050  -15.7939   17.8497 S   0  0  0  0  0  0  0  0  0  0  0  0
   -0.9831  -14.3291   17.2098 C   0  0  0  0  0  0  0  0  0  0  0  0
   -1.4857  -13.1277   16.9543 N   0  0  0  0  0  0  0  0  0  0  0  0
   -0.4151  -12.3998   16.5150 C   0  0  0  0  0  0  0  0  0  0  0  0
    0.7394  -13.1193   16.5147 C   0  0  0  0  0  0  0  0  0  0  0  0
    0.3870  -14.3697   16.9114 N   0  0  0  0  0  0  0  0  0  0  0  0
    1.9413  -12.3839   16.0875 C   0  0  0  0  0  0  0  0  0  0  0  0
    1.3500  -10.9287   15.9687 C   0  0  0  0  0  0  0  0  0  0  0  0
   -0.2236  -11.0277   16.0248 C   0  0  0  0  0  0  0  0  0  0  0  0
   -3.7539  -17.7542   19.9904 C   0  0  0  0  0  0  0  0  0  0  0  0
   -4.7374  -18.1959   20.8567 N   0  0  0  0  0  0  0  0  0  0  0  0
   -5.1863  -19.4870   21.1266 C   0  0  0  0  0  0  0  0  0  0  0  0
   -6.6935  -20.6222   22.1459 H   0  0  0  0  0  0  0  0  0  0  0  0
   -7.6920  -18.5456   23.1411 H   0  0  0  0  0  0  0  0  0  0  0  0
   -3.8746  -14.7362   18.5367 H   0  0  0  0  0  0  0  0  0  0  0  0
   -2.6369  -14.5662   19.7873 H   0  0  0  0  0  0  0  0  0  0  0  0
    0.9764  -15.1791   17.0382 H   0  0  0  0  0  0  0  0  0  0  0  0
    2.7535  -12.4230   16.8174 H   0  0  0  0  0  0  0  0  0  0  0  0
    2.2970  -12.7343   15.1142 H   0  0  0  0  0  0  0  0  0  0  0  0
    1.6892  -10.4289   15.0551 H   0  0  0  0  0  0  0  0  0  0  0  0
    1.7066  -10.3273   16.8140 H   0  0  0  0  0  0  0  0  0  0  0  0
   -0.6434  -10.9136   15.0203 H   0  0  0  0  0  0  0  0  0  0  0  0
   -0.6509  -10.2670   16.6812 H   0  0  0  0  0  0  0  0  0  0  0  0
   -3.1557  -18.4509   19.4207 H   0  0  0  0  0  0  0  0  0  0  0  0
   -4.6691  -20.3023   20.6369 H   0  0  0  0  0  0  0  0  0  0  0  0
  1  2  1  0
  2  3  2  0
  3  4  1  0
  4  5  2  0
  5  6  1  0
  6  7  1  0
  7  8  1  0
  8  9  1  0
  9 10  2  0
 10 11  1  0
 11 12  2  0
 12 13  1  0
 12 14  1  0
 14 15  1  0
 15 16  1  0
  6 17  2  0
 17 18  1  0
 18 19  1  0
 19  1  2  0
 18  4  1  0
 13  9  1  0
 16 11  1  0
  1 20  1  0
  2 21  1  0
  7 22  1  0
  7 23  1  0
 13 24  1  0
 14 25  1  0
 14 26  1  0
 15 27  1  0
 15 28  1  0
 16 29  1  0
 16 30  1  0
 17 31  1  0
 19 32  1  0
M  END
>  <Energy>  (1412) 
62.969525029634795

>  <compound_id>  (1412) 
47259

>  <target_id>  (1412) 
1

>  <reference_id>  (1412) 
107

>  <inspiration_ids>  (1412) 
[107, 80]

>  <energy_score>  (1412) 
-24.347395416792438

>  <distance_score>  (1412) 
14.304383288015925

>  <path>  (1412) 
/opt/xchem-fragalysis-2/maxwin/BulkDock/SCRATCH/511023/C47259-P107/C47259-P107.minimised.mol

>  <scratch_subdir>  (1412) 
/opt/xchem-fragalysis-2/maxwin/BulkDock/SCRATCH/511023/C47259-P107

>  <fragmenstein_runtime>  (1412) 
13.67664623260498

>  <fragmenstein_outcome>  (1412) 
too moved

>  <fragmenstein_mode>  (1412) 
expansion

>  <fragmenstein_error>  (1412) 


$$$$
C47259-P80
     RDKit          3D

 32 35  0  0  0  0  0  0  0  0999 V2000
   -3.8688  -20.0884   23.7413 C   0  0  0  0  0  0  0  0  0  0  0  0
   -4.4670  -18.7217   23.7697 C   0  0  0  0  0  0  0  0  0  0  0  0
   -4.2525  -17.7575   22.9270 N   0  0  0  0  0  0  0  0  0  0  0  0
   -3.3215  -18.0116   21.9528 C   0  0  0  0  0  0  0  0  0  0  0  0
   -2.7823  -17.1763   21.0761 N   0  0  0  0  0  0  0  0  0  0  0  0
   -1.7591  -17.8643   20.3939 C   0  0  0  0  0  0  0  0  0  0  0  0
   -0.9363  -17.1618   19.2388 C   0  0  0  0  0  0  0  0  0  0  0  0
    0.8959  -17.4728   19.1364 S   0  0  0  0  0  0  0  0  0  0  0  0
    1.7157  -16.1525   18.2478 C   0  0  0  0  0  0  0  0  0  0  0  0
    1.2851  -15.4174   17.2271 N   0  0  0  0  0  0  0  0  0  0  0  0
    2.3133  -14.5534   16.9729 C   0  0  0  0  0  0  0  0  0  0  0  0
    3.3742  -14.7477   17.8026 C   0  0  0  0  0  0  0  0  0  0  0  0
    3.0021  -15.7523   18.6388 N   0  0  0  0  0  0  0  0  0  0  0  0
    4.4986  -13.8150   17.6172 C   0  0  0  0  0  0  0  0  0  0  0  0
    4.0375  -13.0917   16.2957 C   0  0  0  0  0  0  0  0  0  0  0  0
    2.5133  -13.4217   16.0569 C   0  0  0  0  0  0  0  0  0  0  0  0
   -1.7520  -19.1730   20.8641 C   0  0  0  0  0  0  0  0  0  0  0  0
   -2.6907  -19.2515   21.8745 N   0  0  0  0  0  0  0  0  0  0  0  0
   -2.9885  -20.2925   22.7521 C   0  0  0  0  0  0  0  0  0  0  0  0
   -4.1265  -20.8223   24.4893 H   0  0  0  0  0  0  0  0  0  0  0  0
   -5.1505  -18.5213   24.6089 H   0  0  0  0  0  0  0  0  0  0  0  0
   -1.1229  -16.0899   19.3054 H   0  0  0  0  0  0  0  0  0  0  0  0
   -1.3700  -17.5042   18.2924 H   0  0  0  0  0  0  0  0  0  0  0  0
    3.4935  -16.1213   19.4382 H   0  0  0  0  0  0  0  0  0  0  0  0
    4.5761  -13.1021   18.4418 H   0  0  0  0  0  0  0  0  0  0  0  0
    5.4562  -14.3221   17.4750 H   0  0  0  0  0  0  0  0  0  0  0  0
    4.6218  -13.4848   15.4534 H   0  0  0  0  0  0  0  0  0  0  0  0
    4.2170  -12.0124   16.3396 H   0  0  0  0  0  0  0  0  0  0  0  0
    2.3248  -13.6797   15.0118 H   0  0  0  0  0  0  0  0  0  0  0  0
    1.8900  -12.5698   16.3456 H   0  0  0  0  0  0  0  0  0  0  0  0
   -1.1394  -20.0212   20.5970 H   0  0  0  0  0  0  0  0  0  0  0  0
   -2.4508  -21.2217   22.6158 H   0  0  0  0  0  0  0  0  0  0  0  0
  1  2  1  0
  2  3  2  0
  3  4  1  0
  4  5  2  0
  5  6  1  0
  6  7  1  0
  7  8  1  0
  8  9  1  0
  9 10  2  0
 10 11  1  0
 11 12  2  0
 12 13  1  0
 12 14  1  0
 14 15  1  0
 15 16  1  0
  6 17  2  0
 17 18  1  0
 18 19  1  0
 19  1  2  0
 18  4  1  0
 13  9  1  0
 16 11  1  0
  1 20  1  0
  2 21  1  0
  7 22  1  0
  7 23  1  0
 13 24  1  0
 14 25  1  0
 14 26  1  0
 15 27  1  0
 15 28  1  0
 16 29  1  0
 16 30  1  0
 17 31  1  0
 19 32  1  0
M  END
>  <Energy>  (1413) 
63.594218054023415

>  <compound_id>  (1413) 
47259

>  <target_id>  (1413) 
1

>  <reference_id>  (1413) 
80

>  <inspiration_ids>  (1413) 
[107, 80]

>  <energy_score>  (1413) 
-23.72270239240345

>  <distance_score>  (1413) 
14.286412781686176

>  <path>  (1413) 
/opt/xchem-fragalysis-2/maxwin/BulkDock/SCRATCH/511023/C47259-P80/C47259-P80.minimised.mol

>  <scratch_subdir>  (1413) 
/opt/xchem-fragalysis-2/maxwin/BulkDock/SCRATCH/511023/C47259-P80

>  <fragmenstein_runtime>  (1413) 
15.516218423843384

>  <fragmenstein_outcome>  (1413) 
too moved

>  <fragmenstein_mode>  (1413) 
expansion

>  <fragmenstein_error>  (1413) 


$$$$
C47260-P107
     RDKit          3D

 36 39  0  0  0  0  0  0  0  0999 V2000
   -5.3493  -17.5783   25.3274 C   0  0  0  0  0  0  0  0  0  0  0  0
   -4.2414  -17.9660   26.2782 C   0  0  0  0  0  0  0  0  0  0  0  0
   -3.0262  -17.4724   26.2708 N   0  0  0  0  0  0  0  0  0  0  0  0
   -2.7892  -16.4202   25.3390 C   0  0  0  0  0  0  0  0  0  0  0  0
   -2.1181  -15.1188   25.4577 N   0  0  0  0  0  0  0  0  0  0  0  0
   -1.3466  -14.9477   24.2804 C   0  0  0  0  0  0  0  0  0  0  0  0
    0.4974  -14.1321   23.8579 C   0  0  0  0  0  0  0  0  0  0  0  0
    2.0404  -12.7726   23.8019 N   0  0  0  0  0  0  0  0  0  0  0  0
    3.0484  -13.8408   23.2636 C   0  0  0  0  0  0  0  0  0  0  0  0
    3.5261  -13.2266   21.5288 C   0  0  0  0  0  0  0  0  0  0  0  0
    4.0705  -11.9207   21.7107 C   0  0  0  0  0  0  0  0  0  0  0  0
    3.2284  -11.4428   22.8542 C   0  0  0  0  0  0  0  0  0  0  0  0
    4.5740   -9.8465   23.3687 C   0  0  0  0  0  0  0  0  0  0  0  0
    4.3782   -8.2248   23.0942 N   0  0  0  0  0  0  0  0  0  0  0  0
    5.4526   -7.2897   23.9406 C   0  0  0  0  0  0  0  0  0  0  0  0
    6.3864   -8.0207   24.6777 C   0  0  0  0  0  0  0  0  0  0  0  0
    5.6277   -9.1753   24.7711 N   0  0  0  0  0  0  0  0  0  0  0  0
   -2.8594  -15.2943   23.6607 C   0  0  0  0  0  0  0  0  0  0  0  0
   -3.7186  -16.0949   24.4252 N   0  0  0  0  0  0  0  0  0  0  0  0
   -5.0312  -16.6445   24.4037 C   0  0  0  0  0  0  0  0  0  0  0  0
   -6.3039  -18.0495   25.4188 H   0  0  0  0  0  0  0  0  0  0  0  0
   -4.4975  -18.7547   27.0049 H   0  0  0  0  0  0  0  0  0  0  0  0
    0.6243  -14.0299   24.9194 H   0  0  0  0  0  0  0  0  0  0  0  0
   -0.1367  -13.7343   23.0743 H   0  0  0  0  0  0  0  0  0  0  0  0
    3.7202  -13.9466   24.1103 H   0  0  0  0  0  0  0  0  0  0  0  0
    2.8276  -14.8694   23.1920 H   0  0  0  0  0  0  0  0  0  0  0  0
    2.9203  -13.6715   20.7743 H   0  0  0  0  0  0  0  0  0  0  0  0
    4.4591  -13.4609   20.9916 H   0  0  0  0  0  0  0  0  0  0  0  0
    4.7026  -11.8443   20.7902 H   0  0  0  0  0  0  0  0  0  0  0  0
    4.9119  -11.2624   21.9484 H   0  0  0  0  0  0  0  0  0  0  0  0
    3.8486  -12.2324   23.2337 H   0  0  0  0  0  0  0  0  0  0  0  0
    5.6628   -6.2974   23.6652 H   0  0  0  0  0  0  0  0  0  0  0  0
    7.3469   -7.8749   25.1538 H   0  0  0  0  0  0  0  0  0  0  0  0
    5.0809   -8.9792   25.5922 H   0  0  0  0  0  0  0  0  0  0  0  0
   -3.2837  -15.1375   22.6981 H   0  0  0  0  0  0  0  0  0  0  0  0
   -5.7041  -16.2917   23.6326 H   0  0  0  0  0  0  0  0  0  0  0  0
  1  2  1  0
  2  3  2  0
  3  4  1  0
  4  5  2  0
  5  6  1  0
  6  7  1  0
  7  8  1  0
  8  9  1  0
  9 10  1  0
 10 11  1  0
 11 12  1  0
 12 13  1  0
 13 14  2  0
 14 15  1  0
 15 16  2  0
 16 17  1  0
  6 18  2  0
 18 19  1  0
 19 20  1  0
 20  1  2  0
 19  4  1  0
 12  8  1  0
 17 13  1  0
  1 21  1  0
  2 22  1  0
  7 23  1  0
  7 24  1  0
  9 25  1  0
  9 26  1  0
 10 27  1  0
 10 28  1  0
 11 29  1  0
 11 30  1  0
 12 31  1  0
 15 32  1  0
 16 33  1  0
 17 34  1  0
 18 35  1  0
 20 36  1  0
M  END
>  <Energy>  (1414) 
1123.7634801294357

>  <compound_id>  (1414) 
47260

>  <target_id>  (1414) 
1

>  <reference_id>  (1414) 
107

>  <inspiration_ids>  (1414) 
[107, 80]

>  <energy_score>  (1414) 
1032.936255409134

>  <distance_score>  (1414) 
12.477647635536929

>  <path>  (1414) 
/opt/xchem-fragalysis-2/maxwin/BulkDock/SCRATCH/511023/C47260-P107/C47260-P107.minimised.mol

>  <scratch_subdir>  (1414) 
/opt/xchem-fragalysis-2/maxwin/BulkDock/SCRATCH/511023/C47260-P107

>  <fragmenstein_runtime>  (1414) 
18.26141595840454

>  <fragmenstein_outcome>  (1414) 
too moved

>  <fragmenstein_mode>  (1414) 
expansion

>  <fragmenstein_error>  (1414) 


$$$$
C47260-P80
     RDKit          3D

 36 39  0  0  0  0  0  0  0  0999 V2000
   -6.3082  -18.1677   28.3245 C   0  0  0  0  0  0  0  0  0  0  0  0
   -5.7557  -18.6757   27.0561 C   0  0  0  0  0  0  0  0  0  0  0  0
   -4.5639  -18.6031   26.5617 N   0  0  0  0  0  0  0  0  0  0  0  0
   -3.7334  -17.7794   27.2491 C   0  0  0  0  0  0  0  0  0  0  0  0
   -2.5685  -17.2250   26.8766 N   0  0  0  0  0  0  0  0  0  0  0  0
   -2.3531  -16.0671   27.7012 C   0  0  0  0  0  0  0  0  0  0  0  0
   -1.0921  -14.6891   27.7110 C   0  0  0  0  0  0  0  0  0  0  0  0
    0.3196  -13.4863   26.9263 N   0  0  0  0  0  0  0  0  0  0  0  0
    1.2365  -13.6525   25.8821 C   0  0  0  0  0  0  0  0  0  0  0  0
    1.8779  -12.6643   25.0305 C   0  0  0  0  0  0  0  0  0  0  0  0
    1.3708  -11.6906   26.1856 C   0  0  0  0  0  0  0  0  0  0  0  0
    0.9968  -11.7024   27.5496 C   0  0  0  0  0  0  0  0  0  0  0  0
    1.6837  -11.1161   28.7027 C   0  0  0  0  0  0  0  0  0  0  0  0
    1.2327  -10.7521   29.8932 N   0  0  0  0  0  0  0  0  0  0  0  0
    2.3835  -10.3603   30.5103 C   0  0  0  0  0  0  0  0  0  0  0  0
    3.3679  -10.2069   29.5228 C   0  0  0  0  0  0  0  0  0  0  0  0
    2.5544  -10.1419   28.4654 N   0  0  0  0  0  0  0  0  0  0  0  0
   -3.3242  -16.2274   28.7554 C   0  0  0  0  0  0  0  0  0  0  0  0
   -4.2024  -17.2138   28.4333 N   0  0  0  0  0  0  0  0  0  0  0  0
   -5.4243  -17.4693   29.0257 C   0  0  0  0  0  0  0  0  0  0  0  0
   -7.3271  -18.3448   28.6138 H   0  0  0  0  0  0  0  0  0  0  0  0
   -6.4899  -19.1479   26.4463 H   0  0  0  0  0  0  0  0  0  0  0  0
   -0.5399  -15.2486   28.4135 H   0  0  0  0  0  0  0  0  0  0  0  0
   -1.6942  -14.7414   26.7637 H   0  0  0  0  0  0  0  0  0  0  0  0
    0.7295  -14.0767   25.0000 H   0  0  0  0  0  0  0  0  0  0  0  0
    2.0701  -13.9604   26.4882 H   0  0  0  0  0  0  0  0  0  0  0  0
    2.8233  -13.1356   24.6643 H   0  0  0  0  0  0  0  0  0  0  0  0
    1.7828  -12.1125   24.0876 H   0  0  0  0  0  0  0  0  0  0  0  0
    0.4304  -11.5204   25.8863 H   0  0  0  0  0  0  0  0  0  0  0  0
    1.9619  -10.8373   26.3660 H   0  0  0  0  0  0  0  0  0  0  0  0
    0.2300  -10.8350   27.6677 H   0  0  0  0  0  0  0  0  0  0  0  0
    2.4590  -10.2408   31.5835 H   0  0  0  0  0  0  0  0  0  0  0  0
    4.4248   -9.9589   29.5299 H   0  0  0  0  0  0  0  0  0  0  0  0
    2.0707   -9.2746   28.2868 H   0  0  0  0  0  0  0  0  0  0  0  0
   -3.3529  -15.7491   29.7370 H   0  0  0  0  0  0  0  0  0  0  0  0
   -5.6516  -16.9906   29.9697 H   0  0  0  0  0  0  0  0  0  0  0  0
  1  2  1  0
  2  3  2  0
  3  4  1  0
  4  5  2  0
  5  6  1  0
  6  7  1  0
  7  8  1  0
  8  9  1  0
  9 10  1  0
 10 11  1  0
 11 12  1  0
 12 13  1  0
 13 14  2  0
 14 15  1  0
 15 16  2  0
 16 17  1  0
  6 18  2  0
 18 19  1  0
 19 20  1  0
 20  1  2  0
 19  4  1  0
 12  8  1  0
 17 13  1  0
  1 21  1  0
  2 22  1  0
  7 23  1  0
  7 24  1  0
  9 25  1  0
  9 26  1  0
 10 27  1  0
 10 28  1  0
 11 29  1  0
 11 30  1  0
 12 31  1  0
 15 32  1  0
 16 33  1  0
 17 34  1  0
 18 35  1  0
 20 36  1  0
M  END
>  <Energy>  (1415) 
606.29491455365041

>  <compound_id>  (1415) 
47260

>  <target_id>  (1415) 
1

>  <reference_id>  (1415) 
80

>  <inspiration_ids>  (1415) 
[107, 80]

>  <energy_score>  (1415) 
515.4676898333323

>  <distance_score>  (1415) 
14.016914995013048

>  <path>  (1415) 
/opt/xchem-fragalysis-2/maxwin/BulkDock/SCRATCH/511023/C47260-P80/C47260-P80.minimised.mol

>  <scratch_subdir>  (1415) 
/opt/xchem-fragalysis-2/maxwin/BulkDock/SCRATCH/511023/C47260-P80

>  <fragmenstein_runtime>  (1415) 
16.12308168411255

>  <fragmenstein_outcome>  (1415) 
too moved

>  <fragmenstein_mode>  (1415) 
expansion

>  <fragmenstein_error>  (1415) 


$$$$
C47261-P107
     RDKit          3D

 36 39  0  0  0  0  0  0  0  0999 V2000
   -9.1949  -15.1535   28.0011 C   0  0  0  0  0  0  0  0  0  0  0  0
  -10.6660  -15.0210   27.8173 C   0  0  0  0  0  0  0  0  0  0  0  0
  -11.3027  -13.9548   27.4358 N   0  0  0  0  0  0  0  0  0  0  0  0
  -10.5401  -12.8379   27.1938 C   0  0  0  0  0  0  0  0  0  0  0  0
  -10.9055  -11.6382   26.7692 N   0  0  0  0  0  0  0  0  0  0  0  0
   -9.7536  -10.8402   26.6370 C   0  0  0  0  0  0  0  0  0  0  0  0
   -9.9072   -9.3954   26.0236 C   0  0  0  0  0  0  0  0  0  0  0  0
   -8.7155   -8.4936   25.9388 N   0  0  0  0  0  0  0  0  0  0  0  0
   -8.3786   -7.7940   27.1912 C   0  0  0  0  0  0  0  0  0  0  0  0
   -7.5419   -6.5451   26.7706 C   0  0  0  0  0  0  0  0  0  0  0  0
   -7.4772   -6.6198   25.2481 C   0  0  0  0  0  0  0  0  0  0  0  0
   -6.7522   -5.5251   24.4304 C   0  0  0  0  0  0  0  0  0  0  0  0
   -6.5248   -5.5515   23.1244 N   0  0  0  0  0  0  0  0  0  0  0  0
   -5.4574   -4.7154   22.8608 C   0  0  0  0  0  0  0  0  0  0  0  0
   -5.0296   -4.1224   24.0176 C   0  0  0  0  0  0  0  0  0  0  0  0
   -5.8811   -4.5938   24.9890 N   0  0  0  0  0  0  0  0  0  0  0  0
   -8.7991   -7.3504   24.9337 C   0  0  0  0  0  0  0  0  0  0  0  0
   -8.6712  -11.6100   27.0436 C   0  0  0  0  0  0  0  0  0  0  0  0
   -9.1601  -12.8676   27.3692 N   0  0  0  0  0  0  0  0  0  0  0  0
   -8.4988  -14.0294   27.7713 C   0  0  0  0  0  0  0  0  0  0  0  0
   -8.7621  -16.0953   28.3035 H   0  0  0  0  0  0  0  0  0  0  0  0
  -11.2460  -15.9324   28.0373 H   0  0  0  0  0  0  0  0  0  0  0  0
  -10.2511   -9.5764   24.9964 H   0  0  0  0  0  0  0  0  0  0  0  0
  -10.7283   -8.8910   26.5479 H   0  0  0  0  0  0  0  0  0  0  0  0
   -9.2737   -7.4575   27.7278 H   0  0  0  0  0  0  0  0  0  0  0  0
   -7.7988   -8.4438   27.8543 H   0  0  0  0  0  0  0  0  0  0  0  0
   -6.5469   -6.5695   27.2267 H   0  0  0  0  0  0  0  0  0  0  0  0
   -8.0450   -5.6267   27.0943 H   0  0  0  0  0  0  0  0  0  0  0  0
   -6.7655   -7.3926   25.0297 H   0  0  0  0  0  0  0  0  0  0  0  0
   -5.0693   -4.6033   21.8563 H   0  0  0  0  0  0  0  0  0  0  0  0
   -4.2375   -3.4204   24.2308 H   0  0  0  0  0  0  0  0  0  0  0  0
   -5.8197   -4.3829   25.9743 H   0  0  0  0  0  0  0  0  0  0  0  0
   -9.6707   -6.7133   25.1273 H   0  0  0  0  0  0  0  0  0  0  0  0
   -8.8527   -7.7183   23.9071 H   0  0  0  0  0  0  0  0  0  0  0  0
   -7.6140  -11.3885   27.0904 H   0  0  0  0  0  0  0  0  0  0  0  0
   -7.4246  -13.9690   27.8719 H   0  0  0  0  0  0  0  0  0  0  0  0
  1  2  1  0
  2  3  2  0
  3  4  1  0
  4  5  2  0
  5  6  1  0
  6  7  1  0
  7  8  1  0
  8  9  1  0
  9 10  1  0
 10 11  1  0
 11 12  1  0
 12 13  2  0
 13 14  1  0
 14 15  2  0
 15 16  1  0
 11 17  1  0
  6 18  2  0
 18 19  1  0
 19 20  1  0
 20  1  2  0
 19  4  1  0
 17  8  1  0
 16 12  1  0
  1 21  1  0
  2 22  1  0
  7 23  1  0
  7 24  1  0
  9 25  1  0
  9 26  1  0
 10 27  1  0
 10 28  1  0
 11 29  1  0
 14 30  1  0
 15 31  1  0
 16 32  1  0
 17 33  1  0
 17 34  1  0
 18 35  1  0
 20 36  1  0
M  END
>  <Energy>  (1416) 
84.05167750470234

>  <compound_id>  (1416) 
47261

>  <target_id>  (1416) 
1

>  <reference_id>  (1416) 
107

>  <inspiration_ids>  (1416) 
[107, 80]

>  <energy_score>  (1416) 
-0.6072927548278813

>  <distance_score>  (1416) 
14.90250592177818

>  <path>  (1416) 
/opt/xchem-fragalysis-2/maxwin/BulkDock/SCRATCH/511023/C47261-P107/C47261-P107.minimised.mol

>  <scratch_subdir>  (1416) 
/opt/xchem-fragalysis-2/maxwin/BulkDock/SCRATCH/511023/C47261-P107

>  <fragmenstein_runtime>  (1416) 
21.61170744895935

>  <fragmenstein_outcome>  (1416) 
too moved

>  <fragmenstein_mode>  (1416) 
expansion

>  <fragmenstein_error>  (1416) 


$$$$
C47261-P80
     RDKit          3D

 36 39  0  0  0  0  0  0  0  0999 V2000
   -5.5777  -15.6465   31.7124 C   0  0  0  0  0  0  0  0  0  0  0  0
   -6.5239  -14.4952   31.6963 C   0  0  0  0  0  0  0  0  0  0  0  0
   -6.2211  -13.2329   31.7995 N   0  0  0  0  0  0  0  0  0  0  0  0
   -4.8867  -12.9220   31.9255 C   0  0  0  0  0  0  0  0  0  0  0  0
   -4.2789  -11.7393   32.0666 N   0  0  0  0  0  0  0  0  0  0  0  0
   -2.8979  -11.9600   32.0820 C   0  0  0  0  0  0  0  0  0  0  0  0
   -1.7268  -10.8773   32.2313 C   0  0  0  0  0  0  0  0  0  0  0  0
   -1.8495   -9.4534   31.7106 N   0  0  0  0  0  0  0  0  0  0  0  0
   -2.2322   -8.4819   32.7643 C   0  0  0  0  0  0  0  0  0  0  0  0
   -1.5536   -7.1199   32.4149 C   0  0  0  0  0  0  0  0  0  0  0  0
   -0.9064   -7.3310   31.0495 C   0  0  0  0  0  0  0  0  0  0  0  0
    0.1196   -6.2844   30.5681 C   0  0  0  0  0  0  0  0  0  0  0  0
    1.2256   -5.8342   31.1429 N   0  0  0  0  0  0  0  0  0  0  0  0
    1.6946   -4.7980   30.3568 C   0  0  0  0  0  0  0  0  0  0  0  0
    0.8692   -4.5938   29.2804 C   0  0  0  0  0  0  0  0  0  0  0  0
   -0.0741   -5.5835   29.3792 N   0  0  0  0  0  0  0  0  0  0  0  0
   -0.5604   -8.8468   31.1727 C   0  0  0  0  0  0  0  0  0  0  0  0
   -2.7097  -13.3455   32.0533 C   0  0  0  0  0  0  0  0  0  0  0  0
   -3.9431  -13.9440   31.9319 N   0  0  0  0  0  0  0  0  0  0  0  0
   -4.2891  -15.2950   31.8352 C   0  0  0  0  0  0  0  0  0  0  0  0
   -5.9431  -16.6616   31.6361 H   0  0  0  0  0  0  0  0  0  0  0  0
   -7.5863  -14.7708   31.5919 H   0  0  0  0  0  0  0  0  0  0  0  0
   -1.4402  -10.8701   33.2908 H   0  0  0  0  0  0  0  0  0  0  0  0
   -0.8770  -11.3270   31.7034 H   0  0  0  0  0  0  0  0  0  0  0  0
   -3.3216   -8.3750   32.7850 H   0  0  0  0  0  0  0  0  0  0  0  0
   -1.8998   -8.7870   33.7633 H   0  0  0  0  0  0  0  0  0  0  0  0
   -2.2834   -6.3036   32.3961 H   0  0  0  0  0  0  0  0  0  0  0  0
   -0.7954   -6.8788   33.1700 H   0  0  0  0  0  0  0  0  0  0  0  0
   -1.7185   -7.2042   30.3256 H   0  0  0  0  0  0  0  0  0  0  0  0
    2.5829   -4.2457   30.6337 H   0  0  0  0  0  0  0  0  0  0  0  0
    0.8801   -3.8777   28.4706 H   0  0  0  0  0  0  0  0  0  0  0  0
   -0.8475   -5.7308   28.7476 H   0  0  0  0  0  0  0  0  0  0  0  0
    0.2723   -9.0106   31.8679 H   0  0  0  0  0  0  0  0  0  0  0  0
   -0.3208   -9.2919   30.2029 H   0  0  0  0  0  0  0  0  0  0  0  0
   -1.8055  -13.9350   32.0846 H   0  0  0  0  0  0  0  0  0  0  0  0
   -3.4824  -16.0153   31.8625 H   0  0  0  0  0  0  0  0  0  0  0  0
  1  2  1  0
  2  3  2  0
  3  4  1  0
  4  5  2  0
  5  6  1  0
  6  7  1  0
  7  8  1  0
  8  9  1  0
  9 10  1  0
 10 11  1  0
 11 12  1  0
 12 13  2  0
 13 14  1  0
 14 15  2  0
 15 16  1  0
 11 17  1  0
  6 18  2  0
 18 19  1  0
 19 20  1  0
 20  1  2  0
 19  4  1  0
 17  8  1  0
 16 12  1  0
  1 21  1  0
  2 22  1  0
  7 23  1  0
  7 24  1  0
  9 25  1  0
  9 26  1  0
 10 27  1  0
 10 28  1  0
 11 29  1  0
 14 30  1  0
 15 31  1  0
 16 32  1  0
 17 33  1  0
 17 34  1  0
 18 35  1  0
 20 36  1  0
M  END
>  <Energy>  (1417) 
80.743742001577289

>  <compound_id>  (1417) 
47261

>  <target_id>  (1417) 
1

>  <reference_id>  (1417) 
80

>  <inspiration_ids>  (1417) 
[107, 80]

>  <energy_score>  (1417) 
-3.915228257952549

>  <distance_score>  (1417) 
14.804279973298

>  <path>  (1417) 
/opt/xchem-fragalysis-2/maxwin/BulkDock/SCRATCH/511023/C47261-P80/C47261-P80.minimised.mol

>  <scratch_subdir>  (1417) 
/opt/xchem-fragalysis-2/maxwin/BulkDock/SCRATCH/511023/C47261-P80

>  <fragmenstein_runtime>  (1417) 
20.39853525161743

>  <fragmenstein_outcome>  (1417) 
too moved

>  <fragmenstein_mode>  (1417) 
expansion

>  <fragmenstein_error>  (1417) 


$$$$
C47262-P107
     RDKit          3D

 39 42  0  0  0  0  0  0  0  0999 V2000
   -2.8849  -14.8702   31.8087 C   0  0  0  0  0  0  0  0  0  0  0  0
   -1.5367  -15.3531   32.1703 C   0  0  0  0  0  0  0  0  0  0  0  0
   -0.5083  -15.4599   31.3884 N   0  0  0  0  0  0  0  0  0  0  0  0
   -0.7093  -15.1402   30.0606 C   0  0  0  0  0  0  0  0  0  0  0  0
    0.0336  -15.3575   28.8498 N   0  0  0  0  0  0  0  0  0  0  0  0
   -0.3379  -14.3307   27.3740 C   0  0  0  0  0  0  0  0  0  0  0  0
    0.9531  -13.1689   26.0497 C   0  0  0  0  0  0  0  0  0  0  0  0
    1.7631  -12.4827   24.1824 N   0  0  0  0  0  0  0  0  0  0  0  0
    0.6444  -11.5434   22.9057 C   0  0  0  0  0  0  0  0  0  0  0  0
    0.0851   -9.9028   22.1299 C   0  0  0  0  0  0  0  0  0  0  0  0
    1.1453   -8.4760   22.2421 C   0  0  0  0  0  0  0  0  0  0  0  0
    2.9369   -8.8885   22.9655 C   0  0  0  0  0  0  0  0  0  0  0  0
    4.4943   -7.6797   23.6683 C   0  0  0  0  0  0  0  0  0  0  0  0
    4.8917   -7.6909   25.0104 N   0  0  0  0  0  0  0  0  0  0  0  0
    6.1725   -7.2468   25.2801 C   0  0  0  0  0  0  0  0  0  0  0  0
    6.6312   -6.5996   24.2011 C   0  0  0  0  0  0  0  0  0  0  0  0
    5.6901   -6.9471   23.2562 N   0  0  0  0  0  0  0  0  0  0  0  0
    2.8498  -11.1175   23.1720 C   0  0  0  0  0  0  0  0  0  0  0  0
   -1.8247  -14.8652   27.8401 C   0  0  0  0  0  0  0  0  0  0  0  0
   -2.0490  -14.7609   29.5552 N   0  0  0  0  0  0  0  0  0  0  0  0
   -3.0712  -14.5575   30.5206 C   0  0  0  0  0  0  0  0  0  0  0  0
   -3.6141  -14.6993   32.5877 H   0  0  0  0  0  0  0  0  0  0  0  0
   -1.4109  -15.6197   33.2330 H   0  0  0  0  0  0  0  0  0  0  0  0
    1.7640  -13.8179   26.2793 H   0  0  0  0  0  0  0  0  0  0  0  0
   -0.0560  -13.3419   25.7762 H   0  0  0  0  0  0  0  0  0  0  0  0
   -0.1056  -12.2881   22.6761 H   0  0  0  0  0  0  0  0  0  0  0  0
    1.3121  -11.6916   22.1921 H   0  0  0  0  0  0  0  0  0  0  0  0
   -0.9132   -9.5905   22.4300 H   0  0  0  0  0  0  0  0  0  0  0  0
   -0.0293  -10.1064   21.0949 H   0  0  0  0  0  0  0  0  0  0  0  0
    0.9740   -7.8423   21.3772 H   0  0  0  0  0  0  0  0  0  0  0  0
    0.6400   -7.9058   23.0491 H   0  0  0  0  0  0  0  0  0  0  0  0
    2.4035   -8.2009   23.7067 H   0  0  0  0  0  0  0  0  0  0  0  0
    6.6260   -7.3694   26.2524 H   0  0  0  0  0  0  0  0  0  0  0  0
    7.5567   -6.1066   23.9505 H   0  0  0  0  0  0  0  0  0  0  0  0
    6.0438   -7.1149   22.3534 H   0  0  0  0  0  0  0  0  0  0  0  0
    2.6254  -11.3794   24.2064 H   0  0  0  0  0  0  0  0  0  0  0  0
    3.5483  -11.7484   22.5759 H   0  0  0  0  0  0  0  0  0  0  0  0
   -2.2096  -15.8489   27.6243 H   0  0  0  0  0  0  0  0  0  0  0  0
   -3.9841  -14.0430   30.2795 H   0  0  0  0  0  0  0  0  0  0  0  0
  1  2  1  0
  2  3  2  0
  3  4  1  0
  4  5  2  0
  5  6  1  0
  6  7  1  0
  7  8  1  0
  8  9  1  0
  9 10  1  0
 10 11  1  0
 11 12  1  0
 12 13  1  0
 13 14  2  0
 14 15  1  0
 15 16  2  0
 16 17  1  0
 12 18  1  0
  6 19  2  0
 19 20  1  0
 20 21  1  0
 21  1  2  0
 20  4  1  0
 18  8  1  0
 17 13  1  0
  1 22  1  0
  2 23  1  0
  7 24  1  0
  7 25  1  0
  9 26  1  0
  9 27  1  0
 10 28  1  0
 10 29  1  0
 11 30  1  0
 11 31  1  0
 12 32  1  0
 15 33  1  0
 16 34  1  0
 17 35  1  0
 18 36  1  0
 18 37  1  0
 19 38  1  0
 21 39  1  0
M  END
>  <Energy>  (1418) 
1413.6919816261386

>  <compound_id>  (1418) 
47262

>  <target_id>  (1418) 
1

>  <reference_id>  (1418) 
107

>  <inspiration_ids>  (1418) 
[107, 80]

>  <energy_score>  (1418) 
1303.4220654130045

>  <distance_score>  (1418) 
13.311750113209166

>  <path>  (1418) 
/opt/xchem-fragalysis-2/maxwin/BulkDock/SCRATCH/511023/C47262-P107/C47262-P107.minimised.mol

>  <scratch_subdir>  (1418) 
/opt/xchem-fragalysis-2/maxwin/BulkDock/SCRATCH/511023/C47262-P107

>  <fragmenstein_runtime>  (1418) 
20.610751152038574

>  <fragmenstein_outcome>  (1418) 
too moved

>  <fragmenstein_mode>  (1418) 
expansion

>  <fragmenstein_error>  (1418) 


$$$$
C47262-P80
     RDKit          3D

 39 42  0  0  0  0  0  0  0  0999 V2000
   -6.9419  -16.6059   25.4341 C   0  0  0  0  0  0  0  0  0  0  0  0
   -5.6675  -17.1087   24.7847 C   0  0  0  0  0  0  0  0  0  0  0  0
   -4.7492  -16.4751   24.1098 N   0  0  0  0  0  0  0  0  0  0  0  0
   -5.0284  -15.1720   23.8689 C   0  0  0  0  0  0  0  0  0  0  0  0
   -4.5339  -13.6097   23.7869 N   0  0  0  0  0  0  0  0  0  0  0  0
   -4.2533  -11.7535   24.3303 C   0  0  0  0  0  0  0  0  0  0  0  0
   -3.2189   -9.8811   23.6006 C   0  0  0  0  0  0  0  0  0  0  0  0
   -1.5560   -8.6825   22.8740 N   0  0  0  0  0  0  0  0  0  0  0  0
   -1.5890   -8.9032   21.4415 C   0  0  0  0  0  0  0  0  0  0  0  0
   -0.2489   -8.5393   20.7731 C   0  0  0  0  0  0  0  0  0  0  0  0
    0.9397   -7.4266   20.9493 C   0  0  0  0  0  0  0  0  0  0  0  0
    1.4990   -5.8616   21.7923 C   0  0  0  0  0  0  0  0  0  0  0  0
    3.6092   -5.0131   21.4825 C   0  0  0  0  0  0  0  0  0  0  0  0
    4.5545   -3.4450   21.4441 N   0  0  0  0  0  0  0  0  0  0  0  0
    6.3245   -3.3609   22.4149 C   0  0  0  0  0  0  0  0  0  0  0  0
    6.5871   -5.0789   23.2435 C   0  0  0  0  0  0  0  0  0  0  0  0
    5.0590   -6.2562   22.6980 N   0  0  0  0  0  0  0  0  0  0  0  0
    0.1415   -7.3498   22.8426 C   0  0  0  0  0  0  0  0  0  0  0  0
   -5.9319  -12.6547   24.2500 C   0  0  0  0  0  0  0  0  0  0  0  0
   -6.7044  -14.5064   24.3371 N   0  0  0  0  0  0  0  0  0  0  0  0
   -7.4385  -15.3772   25.2150 C   0  0  0  0  0  0  0  0  0  0  0  0
   -7.3007  -17.1676   26.2859 H   0  0  0  0  0  0  0  0  0  0  0  0
   -5.4671  -18.1717   24.9935 H   0  0  0  0  0  0  0  0  0  0  0  0
   -2.7665   -9.4532   24.4608 H   0  0  0  0  0  0  0  0  0  0  0  0
   -3.7550   -9.5152   22.7315 H   0  0  0  0  0  0  0  0  0  0  0  0
   -1.7830   -9.9626   21.2348 H   0  0  0  0  0  0  0  0  0  0  0  0
   -2.4469   -8.3789   21.0218 H   0  0  0  0  0  0  0  0  0  0  0  0
   -0.4656   -8.5182   19.6986 H   0  0  0  0  0  0  0  0  0  0  0  0
    0.3109   -9.4478   21.0258 H   0  0  0  0  0  0  0  0  0  0  0  0
    1.2456   -7.3003   19.9072 H   0  0  0  0  0  0  0  0  0  0  0  0
    1.4459   -8.1416   21.6258 H   0  0  0  0  0  0  0  0  0  0  0  0
    0.9105   -4.9917   21.4996 H   0  0  0  0  0  0  0  0  0  0  0  0
    6.7682   -2.3805   22.5500 H   0  0  0  0  0  0  0  0  0  0  0  0
    7.1460   -5.5341   24.0508 H   0  0  0  0  0  0  0  0  0  0  0  0
    4.8425   -7.0408   23.3313 H   0  0  0  0  0  0  0  0  0  0  0  0
    0.8218   -8.0619   23.2807 H   0  0  0  0  0  0  0  0  0  0  0  0
   -0.0590   -6.8358   23.8150 H   0  0  0  0  0  0  0  0  0  0  0  0
   -6.5047  -12.2756   23.3985 H   0  0  0  0  0  0  0  0  0  0  0  0
   -8.2354  -14.9660   25.8169 H   0  0  0  0  0  0  0  0  0  0  0  0
  1  2  1  0
  2  3  2  0
  3  4  1  0
  4  5  2  0
  5  6  1  0
  6  7  1  0
  7  8  1  0
  8  9  1  0
  9 10  1  0
 10 11  1  0
 11 12  1  0
 12 13  1  0
 13 14  2  0
 14 15  1  0
 15 16  2  0
 16 17  1  0
 12 18  1  0
  6 19  2  0
 19 20  1  0
 20 21  1  0
 21  1  2  0
 20  4  1  0
 18  8  1  0
 17 13  1  0
  1 22  1  0
  2 23  1  0
  7 24  1  0
  7 25  1  0
  9 26  1  0
  9 27  1  0
 10 28  1  0
 10 29  1  0
 11 30  1  0
 11 31  1  0
 12 32  1  0
 15 33  1  0
 16 34  1  0
 17 35  1  0
 18 36  1  0
 18 37  1  0
 19 38  1  0
 21 39  1  0
M  END
>  <Energy>  (1419) 
2746.2121701973847

>  <compound_id>  (1419) 
47262

>  <target_id>  (1419) 
1

>  <reference_id>  (1419) 
80

>  <inspiration_ids>  (1419) 
[107, 80]

>  <energy_score>  (1419) 
2635.9422539842135

>  <distance_score>  (1419) 
11.517444147287337

>  <path>  (1419) 
/opt/xchem-fragalysis-2/maxwin/BulkDock/SCRATCH/511023/C47262-P80/C47262-P80.minimised.mol

>  <scratch_subdir>  (1419) 
/opt/xchem-fragalysis-2/maxwin/BulkDock/SCRATCH/511023/C47262-P80

>  <fragmenstein_runtime>  (1419) 
23.27214002609253

>  <fragmenstein_outcome>  (1419) 
too moved

>  <fragmenstein_mode>  (1419) 
expansion

>  <fragmenstein_error>  (1419) 


$$$$
C47263-P107
     RDKit          3D

 38 40  0  0  0  0  0  0  0  0999 V2000
   -1.5437  -15.6355   16.4179 C   0  0  0  0  0  0  0  0  0  0  0  0
   -0.6451  -16.4053   17.1966 O   0  0  0  0  0  0  0  0  0  0  0  0
   -1.1645  -16.7649   18.4699 C   0  0  0  0  0  0  0  0  0  0  0  0
   -0.0920  -17.3842   19.4067 C   0  0  0  0  0  0  0  0  0  0  0  0
    0.2637  -18.8227   19.1405 N   0  0  0  0  0  0  0  0  0  0  0  0
    1.2980  -18.1371   18.1144 C   0  0  0  0  0  0  0  0  0  0  0  0
    2.3237  -16.9258   18.2583 C   0  0  0  0  0  0  0  0  0  0  0  0
    2.3263  -15.7862   17.5629 N   0  0  0  0  0  0  0  0  0  0  0  0
    3.4889  -15.1169   17.8741 C   0  0  0  0  0  0  0  0  0  0  0  0
    4.2215  -15.8386   18.7783 C   0  0  0  0  0  0  0  0  0  0  0  0
    3.4909  -16.9829   18.9992 N   0  0  0  0  0  0  0  0  0  0  0  0
    0.4941  -19.5198   20.3887 C   0  0  0  0  0  0  0  0  0  0  0  0
    1.5092  -19.6814   21.0156 O   0  0  0  0  0  0  0  0  0  0  0  0
   -0.8059  -20.0510   21.0652 C   0  0  0  0  0  0  0  0  0  0  0  0
   -2.0127  -20.4667   20.5138 C   0  0  0  0  0  0  0  0  0  0  0  0
   -2.7848  -20.9774   21.5448 N   0  0  0  0  0  0  0  0  0  0  0  0
   -4.0053  -21.6509   21.5159 C   0  0  0  0  0  0  0  0  0  0  0  0
   -4.5371  -22.1142   22.6565 C   0  0  0  0  0  0  0  0  0  0  0  0
   -3.7631  -21.7846   23.8862 C   0  0  0  0  0  0  0  0  0  0  0  0
   -2.6430  -21.1276   23.9375 N   0  0  0  0  0  0  0  0  0  0  0  0
   -2.0990  -20.7595   22.7334 C   0  0  0  0  0  0  0  0  0  0  0  0
   -0.9221  -20.2179   22.4701 N   0  0  0  0  0  0  0  0  0  0  0  0
   -2.5002  -16.1538   16.3029 H   0  0  0  0  0  0  0  0  0  0  0  0
   -1.1043  -15.4922   15.4269 H   0  0  0  0  0  0  0  0  0  0  0  0
   -1.6907  -14.6518   16.8726 H   0  0  0  0  0  0  0  0  0  0  0  0
   -1.5667  -15.8746   18.9598 H   0  0  0  0  0  0  0  0  0  0  0  0
   -1.9863  -17.4771   18.3288 H   0  0  0  0  0  0  0  0  0  0  0  0
    0.7031  -16.7257   19.7560 H   0  0  0  0  0  0  0  0  0  0  0  0
   -0.6639  -17.4537   20.3424 H   0  0  0  0  0  0  0  0  0  0  0  0
    0.8088  -18.0952   17.1336 H   0  0  0  0  0  0  0  0  0  0  0  0
    1.9929  -18.9838   17.9833 H   0  0  0  0  0  0  0  0  0  0  0  0
    3.7303  -14.1621   17.4284 H   0  0  0  0  0  0  0  0  0  0  0  0
    5.1701  -15.6627   19.2640 H   0  0  0  0  0  0  0  0  0  0  0  0
    3.7601  -17.7614   19.5857 H   0  0  0  0  0  0  0  0  0  0  0  0
   -2.3440  -20.5114   19.4867 H   0  0  0  0  0  0  0  0  0  0  0  0
   -4.4596  -21.8084   20.5459 H   0  0  0  0  0  0  0  0  0  0  0  0
   -5.4529  -22.6832   22.7206 H   0  0  0  0  0  0  0  0  0  0  0  0
   -4.2097  -22.1374   24.8302 H   0  0  0  0  0  0  0  0  0  0  0  0
  1  2  1  0
  2  3  1  0
  3  4  1  0
  4  5  1  0
  5  6  1  0
  6  7  1  0
  7  8  2  0
  8  9  1  0
  9 10  2  0
 10 11  1  0
  5 12  1  0
 12 13  2  0
 12 14  1  0
 14 15  2  0
 15 16  1  0
 16 17  1  0
 17 18  2  0
 18 19  1  0
 19 20  2  0
 20 21  1  0
 21 22  2  0
 11  7  1  0
 22 14  1  0
 21 16  1  0
  1 23  1  0
  1 24  1  0
  1 25  1  0
  3 26  1  0
  3 27  1  0
  4 28  1  0
  4 29  1  0
  6 30  1  0
  6 31  1  0
  9 32  1  0
 10 33  1  0
 11 34  1  0
 15 35  1  0
 17 36  1  0
 18 37  1  0
 19 38  1  0
M  END
>  <Energy>  (1420) 
164.78863345222686

>  <compound_id>  (1420) 
47263

>  <target_id>  (1420) 
1

>  <reference_id>  (1420) 
107

>  <inspiration_ids>  (1420) 
[107, 80]

>  <energy_score>  (1420) 
57.89971679075995

>  <distance_score>  (1420) 
14.291431800355712

>  <path>  (1420) 
/opt/xchem-fragalysis-2/maxwin/BulkDock/SCRATCH/511023/C47263-P107/C47263-P107.minimised.mol

>  <scratch_subdir>  (1420) 
/opt/xchem-fragalysis-2/maxwin/BulkDock/SCRATCH/511023/C47263-P107

>  <fragmenstein_runtime>  (1420) 
34.45848822593689

>  <fragmenstein_outcome>  (1420) 
too moved

>  <fragmenstein_mode>  (1420) 
expansion

>  <fragmenstein_error>  (1420) 


$$$$
C47263-P80
     RDKit          3D

 38 40  0  0  0  0  0  0  0  0999 V2000
   -0.2957   -8.1434   28.2091 C   0  0  0  0  0  0  0  0  0  0  0  0
   -0.5812   -8.9043   27.0321 O   0  0  0  0  0  0  0  0  0  0  0  0
   -1.4884  -10.2810   27.3428 C   0  0  0  0  0  0  0  0  0  0  0  0
   -2.7826  -11.4873   26.0899 C   0  0  0  0  0  0  0  0  0  0  0  0
   -4.2225  -11.7477   24.6130 N   0  0  0  0  0  0  0  0  0  0  0  0
   -3.3380  -10.1110   23.8722 C   0  0  0  0  0  0  0  0  0  0  0  0
   -2.7843   -9.6864   22.1784 C   0  0  0  0  0  0  0  0  0  0  0  0
   -2.9192  -10.3618   21.0625 N   0  0  0  0  0  0  0  0  0  0  0  0
   -1.9944   -9.8328   20.2158 C   0  0  0  0  0  0  0  0  0  0  0  0
   -1.1251   -9.0236   20.9057 C   0  0  0  0  0  0  0  0  0  0  0  0
   -1.7297   -8.8012   22.0907 N   0  0  0  0  0  0  0  0  0  0  0  0
   -6.0327  -11.9684   25.3554 C   0  0  0  0  0  0  0  0  0  0  0  0
   -6.7736  -11.0169   25.5236 O   0  0  0  0  0  0  0  0  0  0  0  0
   -6.8302  -13.5165   26.0837 C   0  0  0  0  0  0  0  0  0  0  0  0
   -7.1870  -13.6166   27.4245 C   0  0  0  0  0  0  0  0  0  0  0  0
   -7.5726  -14.8716   27.7872 N   0  0  0  0  0  0  0  0  0  0  0  0
   -7.4531  -15.4266   29.0587 C   0  0  0  0  0  0  0  0  0  0  0  0
   -7.2498  -16.7390   29.1759 C   0  0  0  0  0  0  0  0  0  0  0  0
   -7.3593  -17.4734   27.9055 C   0  0  0  0  0  0  0  0  0  0  0  0
   -7.6152  -16.9756   26.7326 N   0  0  0  0  0  0  0  0  0  0  0  0
   -7.6432  -15.6161   26.6315 C   0  0  0  0  0  0  0  0  0  0  0  0
   -7.3345  -14.8463   25.5891 N   0  0  0  0  0  0  0  0  0  0  0  0
   -0.1428   -8.8084   29.0579 H   0  0  0  0  0  0  0  0  0  0  0  0
   -1.0923   -7.4285   28.4384 H   0  0  0  0  0  0  0  0  0  0  0  0
    0.5618   -7.5301   27.9765 H   0  0  0  0  0  0  0  0  0  0  0  0
   -0.4501  -10.6201   27.4611 H   0  0  0  0  0  0  0  0  0  0  0  0
   -1.5648  -10.3764   28.4737 H   0  0  0  0  0  0  0  0  0  0  0  0
   -3.3982  -12.0344   26.8350 H   0  0  0  0  0  0  0  0  0  0  0  0
   -2.1789  -12.2831   25.6811 H   0  0  0  0  0  0  0  0  0  0  0  0
   -3.8491   -9.2503   23.5279 H   0  0  0  0  0  0  0  0  0  0  0  0
   -2.5383   -9.6450   24.4482 H   0  0  0  0  0  0  0  0  0  0  0  0
   -1.9491  -10.1507   19.1832 H   0  0  0  0  0  0  0  0  0  0  0  0
   -0.1878   -8.5597   20.6333 H   0  0  0  0  0  0  0  0  0  0  0  0
   -1.3895   -8.2187   22.8412 H   0  0  0  0  0  0  0  0  0  0  0  0
   -6.8820  -12.9771   28.2031 H   0  0  0  0  0  0  0  0  0  0  0  0
   -7.3419  -14.7502   29.8944 H   0  0  0  0  0  0  0  0  0  0  0  0
   -6.9790  -17.2438   30.0910 H   0  0  0  0  0  0  0  0  0  0  0  0
   -7.1887  -18.5535   28.0075 H   0  0  0  0  0  0  0  0  0  0  0  0
  1  2  1  0
  2  3  1  0
  3  4  1  0
  4  5  1  0
  5  6  1  0
  6  7  1  0
  7  8  2  0
  8  9  1  0
  9 10  2  0
 10 11  1  0
  5 12  1  0
 12 13  2  0
 12 14  1  0
 14 15  2  0
 15 16  1  0
 16 17  1  0
 17 18  2  0
 18 19  1  0
 19 20  2  0
 20 21  1  0
 21 22  2  0
 11  7  1  0
 22 14  1  0
 21 16  1  0
  1 23  1  0
  1 24  1  0
  1 25  1  0
  3 26  1  0
  3 27  1  0
  4 28  1  0
  4 29  1  0
  6 30  1  0
  6 31  1  0
  9 32  1  0
 10 33  1  0
 11 34  1  0
 15 35  1  0
 17 36  1  0
 18 37  1  0
 19 38  1  0
M  END
>  <Energy>  (1421) 
767.70543172477255

>  <compound_id>  (1421) 
47263

>  <target_id>  (1421) 
1

>  <reference_id>  (1421) 
80

>  <inspiration_ids>  (1421) 
[107, 80]

>  <energy_score>  (1421) 
660.8165150633125

>  <distance_score>  (1421) 
12.859123960601526

>  <path>  (1421) 
/opt/xchem-fragalysis-2/maxwin/BulkDock/SCRATCH/511023/C47263-P80/C47263-P80.minimised.mol

>  <scratch_subdir>  (1421) 
/opt/xchem-fragalysis-2/maxwin/BulkDock/SCRATCH/511023/C47263-P80

>  <fragmenstein_runtime>  (1421) 
30.54206395149231

>  <fragmenstein_outcome>  (1421) 
too moved

>  <fragmenstein_mode>  (1421) 
expansion

>  <fragmenstein_error>  (1421) 


$$$$
C47264-P107
     RDKit          3D

 28 30  0  0  0  0  0  0  0  0999 V2000
   -2.1015  -17.1821   26.8130 O   0  0  0  0  0  0  0  0  0  0  0  0
   -2.3448  -16.2854   27.6120 C   0  0  0  0  0  0  0  0  0  0  0  0
   -1.6105  -14.6233   27.8065 N   0  0  0  0  0  0  0  0  0  0  0  0
    0.2366  -13.5133   26.7234 S   0  0  0  0  0  0  0  0  0  0  0  0
   -0.3401  -14.7351   27.8852 O   0  0  0  0  0  0  0  0  0  0  0  0
    1.5991  -13.8011   26.3968 O   0  0  0  0  0  0  0  0  0  0  0  0
    0.7088  -11.3539   27.7913 C   0  0  0  0  0  0  0  0  0  0  0  0
   -0.3064  -10.7265   28.5102 N   0  0  0  0  0  0  0  0  0  0  0  0
   -0.1159   -9.4817   28.7810 C   0  0  0  0  0  0  0  0  0  0  0  0
    0.8250   -9.2257   27.8922 C   0  0  0  0  0  0  0  0  0  0  0  0
    1.6933  -10.4068   27.8876 N   0  0  0  0  0  0  0  0  0  0  0  0
   -3.5837  -16.6003   28.7003 C   0  0  0  0  0  0  0  0  0  0  0  0
   -3.7958  -16.2959   30.0929 C   0  0  0  0  0  0  0  0  0  0  0  0
   -5.0290  -16.6811   30.5393 N   0  0  0  0  0  0  0  0  0  0  0  0
   -5.5971  -17.2124   29.4861 C   0  0  0  0  0  0  0  0  0  0  0  0
   -6.9166  -17.3635   29.2196 N   0  0  0  0  0  0  0  0  0  0  0  0
   -7.1740  -17.9328   28.0914 C   0  0  0  0  0  0  0  0  0  0  0  0
   -6.1825  -18.5132   27.1497 C   0  0  0  0  0  0  0  0  0  0  0  0
   -4.9093  -18.2436   27.3990 C   0  0  0  0  0  0  0  0  0  0  0  0
   -4.6407  -17.4716   28.4977 N   0  0  0  0  0  0  0  0  0  0  0  0
   -1.9812  -14.1558   28.6291 H   0  0  0  0  0  0  0  0  0  0  0  0
   -0.7039   -8.8201   29.3831 H   0  0  0  0  0  0  0  0  0  0  0  0
    1.0679   -8.2527   27.5455 H   0  0  0  0  0  0  0  0  0  0  0  0
    2.3422  -10.4880   28.6525 H   0  0  0  0  0  0  0  0  0  0  0  0
   -3.1451  -15.7120   30.7356 H   0  0  0  0  0  0  0  0  0  0  0  0
   -8.2240  -17.9555   27.7808 H   0  0  0  0  0  0  0  0  0  0  0  0
   -6.4280  -18.9793   26.2313 H   0  0  0  0  0  0  0  0  0  0  0  0
   -4.1051  -18.4946   26.7218 H   0  0  0  0  0  0  0  0  0  0  0  0
  1  2  2  0
  2  3  1  0
  3  4  1  0
  4  5  2  0
  4  6  2  0
  4  7  1  0
  7  8  2  0
  8  9  1  0
  9 10  2  0
 10 11  1  0
  2 12  1  0
 12 13  2  0
 13 14  1  0
 14 15  2  0
 15 16  1  0
 16 17  2  0
 17 18  1  0
 18 19  2  0
 19 20  1  0
 11  7  1  0
 20 12  1  0
 20 15  1  0
  3 21  1  0
  9 22  1  0
 10 23  1  0
 11 24  1  0
 13 25  1  0
 17 26  1  0
 18 27  1  0
 19 28  1  0
M  END
>  <Energy>  (1422) 
610.84913289488566

>  <compound_id>  (1422) 
47264

>  <target_id>  (1422) 
1

>  <reference_id>  (1422) 
107

>  <inspiration_ids>  (1422) 
[107, 80]

>  <energy_score>  (1422) 
658.454706091409

>  <distance_score>  (1422) 
13.423672077602266

>  <path>  (1422) 
/opt/xchem-fragalysis-2/maxwin/BulkDock/SCRATCH/511023/C47264-P107/C47264-P107.minimised.mol

>  <scratch_subdir>  (1422) 
/opt/xchem-fragalysis-2/maxwin/BulkDock/SCRATCH/511023/C47264-P107

>  <fragmenstein_runtime>  (1422) 
20.22917914390564

>  <fragmenstein_outcome>  (1422) 
too moved

>  <fragmenstein_mode>  (1422) 
expansion

>  <fragmenstein_error>  (1422) 


$$$$
C47264-P80
     RDKit          3D

 28 30  0  0  0  0  0  0  0  0999 V2000
    0.6971  -13.9753   23.6691 O   0  0  0  0  0  0  0  0  0  0  0  0
   -0.4191  -13.6751   23.2557 C   0  0  0  0  0  0  0  0  0  0  0  0
   -0.7836  -11.8015   22.2430 N   0  0  0  0  0  0  0  0  0  0  0  0
    0.5397   -9.8872   21.8141 S   0  0  0  0  0  0  0  0  0  0  0  0
   -0.4974   -9.1247   22.5479 O   0  0  0  0  0  0  0  0  0  0  0  0
    0.4602   -9.0610   20.6283 O   0  0  0  0  0  0  0  0  0  0  0  0
    2.3253   -8.4899   22.6229 C   0  0  0  0  0  0  0  0  0  0  0  0
    2.0942   -7.8289   23.8170 N   0  0  0  0  0  0  0  0  0  0  0  0
    3.5307   -7.0573   24.3702 C   0  0  0  0  0  0  0  0  0  0  0  0
    4.7120   -7.3852   23.8553 C   0  0  0  0  0  0  0  0  0  0  0  0
    4.0905   -8.1756   22.9301 N   0  0  0  0  0  0  0  0  0  0  0  0
   -1.7845  -15.0992   23.8683 C   0  0  0  0  0  0  0  0  0  0  0  0
   -3.3973  -15.2134   23.6918 C   0  0  0  0  0  0  0  0  0  0  0  0
   -4.2260  -16.2553   23.4765 N   0  0  0  0  0  0  0  0  0  0  0  0
   -4.0928  -16.6572   24.6707 C   0  0  0  0  0  0  0  0  0  0  0  0
   -5.0100  -17.4386   25.3162 N   0  0  0  0  0  0  0  0  0  0  0  0
   -4.5962  -18.2299   26.2341 C   0  0  0  0  0  0  0  0  0  0  0  0
   -3.1995  -18.4002   26.5752 C   0  0  0  0  0  0  0  0  0  0  0  0
   -2.3139  -17.5516   26.0285 C   0  0  0  0  0  0  0  0  0  0  0  0
   -2.6303  -16.2948   25.0337 N   0  0  0  0  0  0  0  0  0  0  0  0
   -1.7412  -11.7645   21.8993 H   0  0  0  0  0  0  0  0  0  0  0  0
    3.4303   -6.2211   25.0051 H   0  0  0  0  0  0  0  0  0  0  0  0
    5.7407   -7.0375   23.8783 H   0  0  0  0  0  0  0  0  0  0  0  0
    4.8159   -8.2513   22.2726 H   0  0  0  0  0  0  0  0  0  0  0  0
   -4.1010  -14.4343   23.6099 H   0  0  0  0  0  0  0  0  0  0  0  0
   -5.3129  -18.8506   26.7947 H   0  0  0  0  0  0  0  0  0  0  0  0
   -2.9184  -19.2240   27.2187 H   0  0  0  0  0  0  0  0  0  0  0  0
   -1.2870  -17.8254   26.2642 H   0  0  0  0  0  0  0  0  0  0  0  0
  1  2  2  0
  2  3  1  0
  3  4  1  0
  4  5  2  0
  4  6  2  0
  4  7  1  0
  7  8  2  0
  8  9  1  0
  9 10  2  0
 10 11  1  0
  2 12  1  0
 12 13  2  0
 13 14  1  0
 14 15  2  0
 15 16  1  0
 16 17  2  0
 17 18  1  0
 18 19  2  0
 19 20  1  0
 11  7  1  0
 20 12  1  0
 20 15  1  0
  3 21  1  0
  9 22  1  0
 10 23  1  0
 11 24  1  0
 13 25  1  0
 17 26  1  0
 18 27  1  0
 19 28  1  0
M  END
>  <Energy>  (1423) 
971.75604116918566

>  <compound_id>  (1423) 
47264

>  <target_id>  (1423) 
1

>  <reference_id>  (1423) 
80

>  <inspiration_ids>  (1423) 
[107, 80]

>  <energy_score>  (1423) 
1019.3616143657183

>  <distance_score>  (1423) 
12.466807008855646

>  <path>  (1423) 
/opt/xchem-fragalysis-2/maxwin/BulkDock/SCRATCH/511023/C47264-P80/C47264-P80.minimised.mol

>  <scratch_subdir>  (1423) 
/opt/xchem-fragalysis-2/maxwin/BulkDock/SCRATCH/511023/C47264-P80

>  <fragmenstein_runtime>  (1423) 
23.18876886367798

>  <fragmenstein_outcome>  (1423) 
too moved

>  <fragmenstein_mode>  (1423) 
expansion

>  <fragmenstein_error>  (1423) 


$$$$
C47257-P107
     RDKit          3D

 35 38  0  0  0  0  0  0  0  0999 V2000
   -1.3919  -13.0046   25.4881 O   0  0  0  0  0  0  0  0  0  0  0  0
   -1.2005  -13.8502   24.7176 C   0  0  0  0  0  0  0  0  0  0  0  0
   -0.2579  -13.2154   23.0797 N   0  0  0  0  0  0  0  0  0  0  0  0
    0.2503  -11.3576   22.4995 C   0  0  0  0  0  0  0  0  0  0  0  0
   -0.5993  -10.0664   22.4883 C   0  0  0  0  0  0  0  0  0  0  0  0
   -0.3580   -8.5966   22.3307 C   0  0  0  0  0  0  0  0  0  0  0  0
    0.5227   -8.1293   21.4009 C   0  0  0  0  0  0  0  0  0  0  0  0
    0.8533   -9.0763   20.5174 C   0  0  0  0  0  0  0  0  0  0  0  0
    1.7204   -8.9380   18.8597 C   0  0  0  0  0  0  0  0  0  0  0  0
    2.0529   -9.7910   17.8902 N   0  0  0  0  0  0  0  0  0  0  0  0
    3.0550   -9.5400   16.9757 C   0  0  0  0  0  0  0  0  0  0  0  0
    3.5385   -8.3881   17.3860 C   0  0  0  0  0  0  0  0  0  0  0  0
    2.4842   -7.9991   18.2391 N   0  0  0  0  0  0  0  0  0  0  0  0
    0.4563  -10.5548   21.2585 C   0  0  0  0  0  0  0  0  0  0  0  0
   -2.0594  -15.3208   25.2927 C   0  0  0  0  0  0  0  0  0  0  0  0
   -1.9766  -15.2015   27.2184 C   0  0  0  0  0  0  0  0  0  0  0  0
   -2.2577  -15.8749   28.3103 N   0  0  0  0  0  0  0  0  0  0  0  0
   -2.5165  -17.1536   28.1271 C   0  0  0  0  0  0  0  0  0  0  0  0
   -2.6521  -18.1339   28.9900 N   0  0  0  0  0  0  0  0  0  0  0  0
   -2.3474  -19.2598   28.2837 C   0  0  0  0  0  0  0  0  0  0  0  0
   -2.0029  -18.9351   26.9874 C   0  0  0  0  0  0  0  0  0  0  0  0
   -2.3712  -17.5824   26.8454 N   0  0  0  0  0  0  0  0  0  0  0  0
   -2.5855  -16.6751   25.4864 C   0  0  0  0  0  0  0  0  0  0  0  0
   -0.0505  -14.0275   22.4918 H   0  0  0  0  0  0  0  0  0  0  0  0
   -1.6125  -10.1044   21.9854 H   0  0  0  0  0  0  0  0  0  0  0  0
   -0.9292   -7.9799   23.0066 H   0  0  0  0  0  0  0  0  0  0  0  0
    0.8643   -7.1230   21.4025 H   0  0  0  0  0  0  0  0  0  0  0  0
    3.3989  -10.2493   16.2412 H   0  0  0  0  0  0  0  0  0  0  0  0
    4.3972   -7.7770   17.1444 H   0  0  0  0  0  0  0  0  0  0  0  0
    2.5532   -7.1672   18.7724 H   0  0  0  0  0  0  0  0  0  0  0  0
   -0.5365  -10.8565   20.6749 H   0  0  0  0  0  0  0  0  0  0  0  0
   -1.1213  -14.6486   27.5452 H   0  0  0  0  0  0  0  0  0  0  0  0
   -2.3566  -20.2363   28.7491 H   0  0  0  0  0  0  0  0  0  0  0  0
   -1.7199  -19.5386   26.1414 H   0  0  0  0  0  0  0  0  0  0  0  0
   -2.3405  -17.4820   24.9174 H   0  0  0  0  0  0  0  0  0  0  0  0
  1  2  2  0
  2  3  1  0
  3  4  1  0
  4  5  2  0
  5  6  1  0
  6  7  2  0
  7  8  1  0
  8  9  1  0
  9 10  2  0
 10 11  1  0
 11 12  2  0
 12 13  1  0
  8 14  2  0
  2 15  1  0
 15 16  1  0
 16 17  2  0
 17 18  1  0
 18 19  2  0
 19 20  1  0
 20 21  2  0
 21 22  1  0
 22 23  1  0
 14  4  1  0
 23 15  2  0
 13  9  1  0
 22 18  1  0
  3 24  1  0
  5 25  1  0
  6 26  1  0
  7 27  1  0
 11 28  1  0
 12 29  1  0
 13 30  1  0
 14 31  1  0
 16 32  1  0
 20 33  1  0
 21 34  1  0
 23 35  1  0
M  END
>  <Energy>  (1424) 
842.71606824290757

>  <compound_id>  (1424) 
47257

>  <target_id>  (1424) 
1

>  <reference_id>  (1424) 
107

>  <inspiration_ids>  (1424) 
[107, 80]

>  <energy_score>  (1424) 
776.9761318561721

>  <distance_score>  (1424) 
12.357183376171312

>  <path>  (1424) 
/opt/xchem-fragalysis-2/maxwin/BulkDock/SCRATCH/511023/C47257-P107/C47257-P107.minimised.mol

>  <scratch_subdir>  (1424) 
/opt/xchem-fragalysis-2/maxwin/BulkDock/SCRATCH/511023/C47257-P107

>  <fragmenstein_runtime>  (1424) 
21.205199241638184

>  <fragmenstein_outcome>  (1424) 
too moved

>  <fragmenstein_mode>  (1424) 
expansion

>  <fragmenstein_error>  (1424) 


$$$$
C47257-P80
     RDKit          3D

 35 38  0  0  0  0  0  0  0  0999 V2000
   -0.3309  -14.0722   24.3698 O   0  0  0  0  0  0  0  0  0  0  0  0
    0.5241  -14.8904   24.4115 C   0  0  0  0  0  0  0  0  0  0  0  0
    2.4489  -14.1301   23.5415 N   0  0  0  0  0  0  0  0  0  0  0  0
    3.2351  -12.2196   22.7462 C   0  0  0  0  0  0  0  0  0  0  0  0
    4.3247  -10.4305   22.7372 C   0  0  0  0  0  0  0  0  0  0  0  0
    4.8258   -8.3961   21.9963 C   0  0  0  0  0  0  0  0  0  0  0  0
    5.0438   -8.4864   19.7658 C   0  0  0  0  0  0  0  0  0  0  0  0
    5.4065  -10.6322   19.9400 C   0  0  0  0  0  0  0  0  0  0  0  0
    6.4839  -11.0599   18.9344 C   0  0  0  0  0  0  0  0  0  0  0  0
    7.3672  -10.2039   18.4371 N   0  0  0  0  0  0  0  0  0  0  0  0
    8.0662  -10.9071   17.4927 C   0  0  0  0  0  0  0  0  0  0  0  0
    7.6198  -12.2028   17.4314 C   0  0  0  0  0  0  0  0  0  0  0  0
    6.6177  -12.2889   18.3628 N   0  0  0  0  0  0  0  0  0  0  0  0
    4.4753  -11.9303   21.2040 C   0  0  0  0  0  0  0  0  0  0  0  0
   -0.4813  -17.0183   25.2211 C   0  0  0  0  0  0  0  0  0  0  0  0
    0.2807  -18.8455   25.3854 C   0  0  0  0  0  0  0  0  0  0  0  0
   -0.0881  -19.9966   25.8529 N   0  0  0  0  0  0  0  0  0  0  0  0
   -1.1676  -20.0656   26.6323 C   0  0  0  0  0  0  0  0  0  0  0  0
   -1.6746  -21.0825   27.3030 N   0  0  0  0  0  0  0  0  0  0  0  0
   -2.5985  -20.5418   28.1536 C   0  0  0  0  0  0  0  0  0  0  0  0
   -2.6437  -19.1834   27.9810 C   0  0  0  0  0  0  0  0  0  0  0  0
   -1.8225  -18.9106   26.8897 N   0  0  0  0  0  0  0  0  0  0  0  0
   -1.6243  -17.6898   26.2140 C   0  0  0  0  0  0  0  0  0  0  0  0
    3.1288  -14.8896   23.5184 H   0  0  0  0  0  0  0  0  0  0  0  0
    3.4720  -10.0216   23.2706 H   0  0  0  0  0  0  0  0  0  0  0  0
    4.9870   -7.5834   22.7614 H   0  0  0  0  0  0  0  0  0  0  0  0
    5.7432   -7.9124   19.0991 H   0  0  0  0  0  0  0  0  0  0  0  0
    8.8444  -10.4556   16.8936 H   0  0  0  0  0  0  0  0  0  0  0  0
    7.9030  -13.0451   16.8169 H   0  0  0  0  0  0  0  0  0  0  0  0
    6.0269  -13.0884   18.5484 H   0  0  0  0  0  0  0  0  0  0  0  0
    4.6292  -12.9036   20.6847 H   0  0  0  0  0  0  0  0  0  0  0  0
    1.2699  -18.9262   24.8977 H   0  0  0  0  0  0  0  0  0  0  0  0
   -3.1537  -21.1470   28.8568 H   0  0  0  0  0  0  0  0  0  0  0  0
   -3.2293  -18.4119   28.4600 H   0  0  0  0  0  0  0  0  0  0  0  0
   -2.3752  -17.0150   26.6400 H   0  0  0  0  0  0  0  0  0  0  0  0
  1  2  2  0
  2  3  1  0
  3  4  1  0
  4  5  2  0
  5  6  1  0
  6  7  2  0
  7  8  1  0
  8  9  1  0
  9 10  2  0
 10 11  1  0
 11 12  2  0
 12 13  1  0
  8 14  2  0
  2 15  1  0
 15 16  1  0
 16 17  2  0
 17 18  1  0
 18 19  2  0
 19 20  1  0
 20 21  2  0
 21 22  1  0
 22 23  1  0
 14  4  1  0
 23 15  2  0
 13  9  1  0
 22 18  1  0
  3 24  1  0
  5 25  1  0
  6 26  1  0
  7 27  1  0
 11 28  1  0
 12 29  1  0
 13 30  1  0
 14 31  1  0
 16 32  1  0
 20 33  1  0
 21 34  1  0
 23 35  1  0
M  END
>  <Energy>  (1425) 
2854.3392834873971

>  <compound_id>  (1425) 
47257

>  <target_id>  (1425) 
1

>  <reference_id>  (1425) 
80

>  <inspiration_ids>  (1425) 
[107, 80]

>  <energy_score>  (1425) 
2788.5993471006145

>  <distance_score>  (1425) 
11.88716488293529

>  <path>  (1425) 
/opt/xchem-fragalysis-2/maxwin/BulkDock/SCRATCH/511023/C47257-P80/C47257-P80.minimised.mol

>  <scratch_subdir>  (1425) 
/opt/xchem-fragalysis-2/maxwin/BulkDock/SCRATCH/511023/C47257-P80

>  <fragmenstein_runtime>  (1425) 
24.64162826538086

>  <fragmenstein_outcome>  (1425) 
too moved

>  <fragmenstein_mode>  (1425) 
expansion

>  <fragmenstein_error>  (1425) 


$$$$
C47258-P107
     RDKit          3D

 35 38  0  0  0  0  0  0  0  0999 V2000
    0.0126  -20.3842   20.3672 O   0  0  0  0  0  0  0  0  0  0  0  0
   -0.5065  -19.4744   19.7662 C   0  0  0  0  0  0  0  0  0  0  0  0
    0.0719  -18.5051   18.7891 N   0  0  0  0  0  0  0  0  0  0  0  0
    1.4036  -18.4299   18.1978 C   0  0  0  0  0  0  0  0  0  0  0  0
    2.0270  -19.7180   18.2724 C   0  0  0  0  0  0  0  0  0  0  0  0
    3.2588  -20.0618   17.7087 C   0  0  0  0  0  0  0  0  0  0  0  0
    3.9508  -19.1201   16.9967 C   0  0  0  0  0  0  0  0  0  0  0  0
    3.4094  -17.8455   16.9012 C   0  0  0  0  0  0  0  0  0  0  0  0
    2.1696  -17.4261   17.5092 C   0  0  0  0  0  0  0  0  0  0  0  0
    2.0706  -15.9343   17.2937 C   0  0  0  0  0  0  0  0  0  0  0  0
    1.6117  -15.3491   16.1914 N   0  0  0  0  0  0  0  0  0  0  0  0
    2.4248  -14.2620   15.9313 C   0  0  0  0  0  0  0  0  0  0  0  0
    3.3325  -14.0886   16.9421 C   0  0  0  0  0  0  0  0  0  0  0  0
    3.0134  -15.0617   17.8587 N   0  0  0  0  0  0  0  0  0  0  0  0
   -2.0449  -19.4640   20.0420 C   0  0  0  0  0  0  0  0  0  0  0  0
   -3.1600  -18.5919   19.5606 C   0  0  0  0  0  0  0  0  0  0  0  0
   -4.4416  -18.7155   19.7997 N   0  0  0  0  0  0  0  0  0  0  0  0
   -4.8478  -19.7558   20.5950 C   0  0  0  0  0  0  0  0  0  0  0  0
   -6.0522  -20.0936   21.0195 N   0  0  0  0  0  0  0  0  0  0  0  0
   -5.8865  -21.2158   21.7900 C   0  0  0  0  0  0  0  0  0  0  0  0
   -4.5574  -21.5580   21.8751 C   0  0  0  0  0  0  0  0  0  0  0  0
   -3.8986  -20.6364   21.0942 N   0  0  0  0  0  0  0  0  0  0  0  0
   -2.5373  -20.4880   20.8083 C   0  0  0  0  0  0  0  0  0  0  0  0
   -0.6326  -17.8204   18.5434 H   0  0  0  0  0  0  0  0  0  0  0  0
    1.5221  -20.5572   18.7458 H   0  0  0  0  0  0  0  0  0  0  0  0
    3.6381  -21.0758   17.8037 H   0  0  0  0  0  0  0  0  0  0  0  0
    4.8939  -19.3599   16.5149 H   0  0  0  0  0  0  0  0  0  0  0  0
    3.9888  -17.1231   16.3183 H   0  0  0  0  0  0  0  0  0  0  0  0
    2.3014  -13.6733   15.0308 H   0  0  0  0  0  0  0  0  0  0  0  0
    4.1238  -13.3713   17.1203 H   0  0  0  0  0  0  0  0  0  0  0  0
    3.5364  -15.2346   18.7106 H   0  0  0  0  0  0  0  0  0  0  0  0
   -2.8479  -17.7481   18.9241 H   0  0  0  0  0  0  0  0  0  0  0  0
   -6.7369  -21.7198   22.2285 H   0  0  0  0  0  0  0  0  0  0  0  0
   -4.0440  -22.3619   22.3815 H   0  0  0  0  0  0  0  0  0  0  0  0
   -1.9036  -21.2544   21.2416 H   0  0  0  0  0  0  0  0  0  0  0  0
  1  2  2  0
  2  3  1  0
  3  4  1  0
  4  5  2  0
  5  6  1  0
  6  7  2  0
  7  8  1  0
  8  9  2  0
  9 10  1  0
 10 11  2  0
 11 12  1  0
 12 13  2  0
 13 14  1  0
  2 15  1  0
 15 16  1  0
 16 17  2  0
 17 18  1  0
 18 19  2  0
 19 20  1  0
 20 21  2  0
 21 22  1  0
 22 23  1  0
  9  4  1  0
 14 10  1  0
 23 15  2  0
 22 18  1  0
  3 24  1  0
  5 25  1  0
  6 26  1  0
  7 27  1  0
  8 28  1  0
 12 29  1  0
 13 30  1  0
 14 31  1  0
 16 32  1  0
 20 33  1  0
 21 34  1  0
 23 35  1  0
M  END
>  <Energy>  (1426) 
96.152279112978519

>  <compound_id>  (1426) 
47258

>  <target_id>  (1426) 
1

>  <reference_id>  (1426) 
107

>  <inspiration_ids>  (1426) 
[107, 80]

>  <energy_score>  (1426) 
8.690479330297421

>  <distance_score>  (1426) 
14.292407594127713

>  <path>  (1426) 
/opt/xchem-fragalysis-2/maxwin/BulkDock/SCRATCH/511023/C47258-P107/C47258-P107.minimised.mol

>  <scratch_subdir>  (1426) 
/opt/xchem-fragalysis-2/maxwin/BulkDock/SCRATCH/511023/C47258-P107

>  <fragmenstein_runtime>  (1426) 
34.11899948120117

>  <fragmenstein_outcome>  (1426) 
too moved

>  <fragmenstein_mode>  (1426) 
expansion

>  <fragmenstein_error>  (1426) 


$$$$
C47258-P80
     RDKit          3D

 35 38  0  0  0  0  0  0  0  0999 V2000
    0.5540  -16.1415   20.2772 O   0  0  0  0  0  0  0  0  0  0  0  0
   -0.3555  -16.2036   21.1060 C   0  0  0  0  0  0  0  0  0  0  0  0
   -0.9116  -14.7958   22.2715 N   0  0  0  0  0  0  0  0  0  0  0  0
   -0.3602  -12.9229   22.3854 C   0  0  0  0  0  0  0  0  0  0  0  0
   -1.5154  -12.6920   20.8729 C   0  0  0  0  0  0  0  0  0  0  0  0
   -2.2229  -11.8730   19.7569 C   0  0  0  0  0  0  0  0  0  0  0  0
   -2.5461  -10.6248   19.9737 C   0  0  0  0  0  0  0  0  0  0  0  0
   -2.1034  -10.3768   21.1974 C   0  0  0  0  0  0  0  0  0  0  0  0
   -0.8638  -11.1593   21.9227 C   0  0  0  0  0  0  0  0  0  0  0  0
   -0.0309   -9.9407   22.0680 C   0  0  0  0  0  0  0  0  0  0  0  0
   -0.3889   -8.8524   22.7018 N   0  0  0  0  0  0  0  0  0  0  0  0
   -0.7053   -8.1679   21.6665 C   0  0  0  0  0  0  0  0  0  0  0  0
    0.2206   -8.3000   20.6953 C   0  0  0  0  0  0  0  0  0  0  0  0
    0.8410   -9.3942   21.1704 N   0  0  0  0  0  0  0  0  0  0  0  0
   -1.1894  -17.7526   20.9451 C   0  0  0  0  0  0  0  0  0  0  0  0
   -0.6729  -19.1642   21.2008 C   0  0  0  0  0  0  0  0  0  0  0  0
   -1.3583  -20.2687   21.3352 N   0  0  0  0  0  0  0  0  0  0  0  0
   -2.6844  -20.1887   21.0473 C   0  0  0  0  0  0  0  0  0  0  0  0
   -3.6769  -20.9965   21.3675 N   0  0  0  0  0  0  0  0  0  0  0  0
   -4.8065  -20.4390   20.8250 C   0  0  0  0  0  0  0  0  0  0  0  0
   -4.5038  -19.2653   20.1674 C   0  0  0  0  0  0  0  0  0  0  0  0
   -3.1576  -19.0562   20.3831 N   0  0  0  0  0  0  0  0  0  0  0  0
   -2.3887  -17.8699   20.2902 C   0  0  0  0  0  0  0  0  0  0  0  0
   -1.7253  -15.0830   22.7876 H   0  0  0  0  0  0  0  0  0  0  0  0
   -1.9420  -13.7149   20.6587 H   0  0  0  0  0  0  0  0  0  0  0  0
   -2.4646  -12.3171   18.7980 H   0  0  0  0  0  0  0  0  0  0  0  0
   -3.0704   -9.9569   19.3310 H   0  0  0  0  0  0  0  0  0  0  0  0
   -2.5227   -9.5116   21.6988 H   0  0  0  0  0  0  0  0  0  0  0  0
   -1.7251   -7.8447   21.6450 H   0  0  0  0  0  0  0  0  0  0  0  0
    0.2888   -8.0471   19.6571 H   0  0  0  0  0  0  0  0  0  0  0  0
    1.3504   -9.9469   20.5282 H   0  0  0  0  0  0  0  0  0  0  0  0
    0.4182  -19.2894   21.2361 H   0  0  0  0  0  0  0  0  0  0  0  0
   -5.7748  -20.9108   20.9350 H   0  0  0  0  0  0  0  0  0  0  0  0
   -5.1236  -18.5411   19.6601 H   0  0  0  0  0  0  0  0  0  0  0  0
   -2.8928  -17.0106   19.8704 H   0  0  0  0  0  0  0  0  0  0  0  0
  1  2  2  0
  2  3  1  0
  3  4  1  0
  4  5  2  0
  5  6  1  0
  6  7  2  0
  7  8  1  0
  8  9  2  0
  9 10  1  0
 10 11  2  0
 11 12  1  0
 12 13  2  0
 13 14  1  0
  2 15  1  0
 15 16  1  0
 16 17  2  0
 17 18  1  0
 18 19  2  0
 19 20  1  0
 20 21  2  0
 21 22  1  0
 22 23  1  0
  9  4  1  0
 14 10  1  0
 23 15  2  0
 22 18  1  0
  3 24  1  0
  5 25  1  0
  6 26  1  0
  7 27  1  0
  8 28  1  0
 12 29  1  0
 13 30  1  0
 14 31  1  0
 16 32  1  0
 20 33  1  0
 21 34  1  0
 23 35  1  0
M  END
>  <Energy>  (1427) 
708.20197312303378

>  <compound_id>  (1427) 
47258

>  <target_id>  (1427) 
1

>  <reference_id>  (1427) 
80

>  <inspiration_ids>  (1427) 
[107, 80]

>  <energy_score>  (1427) 
620.7401733403462

>  <distance_score>  (1427) 
14.76945430011392

>  <path>  (1427) 
/opt/xchem-fragalysis-2/maxwin/BulkDock/SCRATCH/511023/C47258-P80/C47258-P80.minimised.mol

>  <scratch_subdir>  (1427) 
/opt/xchem-fragalysis-2/maxwin/BulkDock/SCRATCH/511023/C47258-P80

>  <fragmenstein_runtime>  (1427) 
21.167654275894165

>  <fragmenstein_outcome>  (1427) 
too moved

>  <fragmenstein_mode>  (1427) 
expansion

>  <fragmenstein_error>  (1427) 


$$$$
C47265-P107
     RDKit          3D

 35 37  0  0  0  0  0  0  0  0999 V2000
   -1.4847  -12.3158   21.3978 O   0  0  0  0  0  0  0  0  0  0  0  0
   -0.4864  -12.5994   22.4773 C   0  0  0  0  0  0  0  0  0  0  0  0
   -0.5615  -14.0305   23.8962 N   0  0  0  0  0  0  0  0  0  0  0  0
   -2.0222  -15.3907   24.4407 C   0  0  0  0  0  0  0  0  0  0  0  0
   -2.5549  -16.9241   25.7823 C   0  0  0  0  0  0  0  0  0  0  0  0
   -3.5531  -17.2178   27.1621 C   0  0  0  0  0  0  0  0  0  0  0  0
   -4.5155  -18.7297   27.4576 N   0  0  0  0  0  0  0  0  0  0  0  0
   -5.8579  -19.1165   26.9505 C   0  0  0  0  0  0  0  0  0  0  0  0
   -7.5615  -18.6425   27.5318 N   0  0  0  0  0  0  0  0  0  0  0  0
   -7.4608  -17.3655   28.6032 C   0  0  0  0  0  0  0  0  0  0  0  0
   -6.1159  -17.2228   28.9801 C   0  0  0  0  0  0  0  0  0  0  0  0
   -5.0565  -18.0509   27.7220 N   0  0  0  0  0  0  0  0  0  0  0  0
   -3.0902  -17.5436   27.2910 C   0  0  0  0  0  0  0  0  0  0  0  0
    0.7277  -11.3229   22.4233 C   0  0  0  0  0  0  0  0  0  0  0  0
   -0.3129  -10.2258   22.7004 O   0  0  0  0  0  0  0  0  0  0  0  0
    0.6643   -9.9858   20.9954 C   0  0  0  0  0  0  0  0  0  0  0  0
    1.7610   -8.8234   20.6648 C   0  0  0  0  0  0  0  0  0  0  0  0
    2.3929   -7.8664   21.4450 C   0  0  0  0  0  0  0  0  0  0  0  0
    3.2016   -7.1396   20.6026 N   0  0  0  0  0  0  0  0  0  0  0  0
    3.0032   -7.6020   19.3386 C   0  0  0  0  0  0  0  0  0  0  0  0
    2.1292   -8.5823   19.3303 N   0  0  0  0  0  0  0  0  0  0  0  0
    0.2199  -13.9118   24.5285 H   0  0  0  0  0  0  0  0  0  0  0  0
   -2.1980  -14.7287   25.3089 H   0  0  0  0  0  0  0  0  0  0  0  0
   -2.9025  -15.3028   23.8001 H   0  0  0  0  0  0  0  0  0  0  0  0
   -4.2883  -16.7585   26.5146 H   0  0  0  0  0  0  0  0  0  0  0  0
   -8.3848  -16.8700   28.8366 H   0  0  0  0  0  0  0  0  0  0  0  0
   -5.5262  -16.5356   29.5537 H   0  0  0  0  0  0  0  0  0  0  0  0
   -2.4310  -18.5983   26.9804 H   0  0  0  0  0  0  0  0  0  0  0  0
    1.5492  -11.6590   23.1009 H   0  0  0  0  0  0  0  0  0  0  0  0
    0.2674   -9.4497   22.8750 H   0  0  0  0  0  0  0  0  0  0  0  0
    0.2476  -10.4197   20.0863 H   0  0  0  0  0  0  0  0  0  0  0  0
   -0.2031   -9.2845   21.0940 H   0  0  0  0  0  0  0  0  0  0  0  0
    2.3429   -7.6438   22.4975 H   0  0  0  0  0  0  0  0  0  0  0  0
    3.8059   -6.3731   20.8614 H   0  0  0  0  0  0  0  0  0  0  0  0
    3.5011   -7.1890   18.4725 H   0  0  0  0  0  0  0  0  0  0  0  0
  1  2  2  0
  2  3  1  0
  3  4  1  0
  4  5  1  0
  5  6  1  0
  6  7  2  0
  7  8  1  0
  8  9  2  0
  9 10  1  0
 10 11  2  0
 11 12  1  0
 12 13  1  0
  2 14  1  0
 14 15  1  0
 14 16  1  0
 16 17  1  0
 17 18  2  0
 18 19  1  0
 19 20  1  0
 20 21  2  0
 13  5  2  0
 21 17  1  0
 12  8  1  0
  3 22  1  0
  4 23  1  0
  4 24  1  0
  6 25  1  0
 10 26  1  0
 11 27  1  0
 13 28  1  0
 14 29  1  0
 15 30  1  0
 16 31  1  0
 16 32  1  0
 18 33  1  0
 19 34  1  0
 20 35  1  0
M  END
>  <Energy>  (1428) 
1960.393642157838

>  <compound_id>  (1428) 
47265

>  <target_id>  (1428) 
1

>  <reference_id>  (1428) 
107

>  <inspiration_ids>  (1428) 
[107, 80]

>  <energy_score>  (1428) 
1888.4895359591028

>  <distance_score>  (1428) 
11.017745397953385

>  <path>  (1428) 
/opt/xchem-fragalysis-2/maxwin/BulkDock/SCRATCH/511023/C47265-P107/C47265-P107.minimised.mol

>  <scratch_subdir>  (1428) 
/opt/xchem-fragalysis-2/maxwin/BulkDock/SCRATCH/511023/C47265-P107

>  <fragmenstein_runtime>  (1428) 
22.521894216537476

>  <fragmenstein_outcome>  (1428) 
too moved

>  <fragmenstein_mode>  (1428) 
expansion

>  <fragmenstein_error>  (1428) 


$$$$
C47265-P80
     RDKit          3D

 35 37  0  0  0  0  0  0  0  0999 V2000
   -0.1869   -9.8827   22.2048 O   0  0  0  0  0  0  0  0  0  0  0  0
   -0.9088  -10.5860   21.5555 C   0  0  0  0  0  0  0  0  0  0  0  0
   -1.2303  -12.1200   21.6960 N   0  0  0  0  0  0  0  0  0  0  0  0
   -0.4091  -13.6104   22.9941 C   0  0  0  0  0  0  0  0  0  0  0  0
   -1.2306  -14.6199   24.4670 C   0  0  0  0  0  0  0  0  0  0  0  0
   -2.4239  -15.5258   24.4719 C   0  0  0  0  0  0  0  0  0  0  0  0
   -2.7484  -16.5228   25.2395 N   0  0  0  0  0  0  0  0  0  0  0  0
   -2.4701  -16.5802   26.5408 C   0  0  0  0  0  0  0  0  0  0  0  0
   -3.0049  -17.1467   27.5071 N   0  0  0  0  0  0  0  0  0  0  0  0
   -3.2959  -16.1107   28.3043 C   0  0  0  0  0  0  0  0  0  0  0  0
   -2.3033  -15.1068   28.1518 C   0  0  0  0  0  0  0  0  0  0  0  0
   -2.0776  -15.1378   26.8693 N   0  0  0  0  0  0  0  0  0  0  0  0
   -1.9136  -14.2007   25.6082 C   0  0  0  0  0  0  0  0  0  0  0  0
   -1.5323   -9.8648   20.3179 C   0  0  0  0  0  0  0  0  0  0  0  0
   -2.2849   -8.7430   20.7981 O   0  0  0  0  0  0  0  0  0  0  0  0
   -0.5171   -9.3536   19.2013 C   0  0  0  0  0  0  0  0  0  0  0  0
    0.6356   -8.3849   19.4379 C   0  0  0  0  0  0  0  0  0  0  0  0
    1.9381   -8.4865   18.9670 C   0  0  0  0  0  0  0  0  0  0  0  0
    2.5576   -7.3084   19.2809 N   0  0  0  0  0  0  0  0  0  0  0  0
    1.6234   -6.5119   19.8734 C   0  0  0  0  0  0  0  0  0  0  0  0
    0.4555   -7.1173   19.9630 N   0  0  0  0  0  0  0  0  0  0  0  0
   -1.8312  -12.4173   20.9138 H   0  0  0  0  0  0  0  0  0  0  0  0
    0.4812  -13.9344   23.5923 H   0  0  0  0  0  0  0  0  0  0  0  0
   -0.4794  -14.4732   22.3455 H   0  0  0  0  0  0  0  0  0  0  0  0
   -3.1623  -15.3201   23.6890 H   0  0  0  0  0  0  0  0  0  0  0  0
   -3.8394  -16.1993   29.2411 H   0  0  0  0  0  0  0  0  0  0  0  0
   -2.1282  -14.4599   28.9668 H   0  0  0  0  0  0  0  0  0  0  0  0
   -2.2327  -13.1497   25.6517 H   0  0  0  0  0  0  0  0  0  0  0  0
   -2.2473  -10.5462   19.8454 H   0  0  0  0  0  0  0  0  0  0  0  0
   -1.6008   -8.0918   21.0719 H   0  0  0  0  0  0  0  0  0  0  0  0
   -1.1464   -8.8373   18.4601 H   0  0  0  0  0  0  0  0  0  0  0  0
   -0.1363  -10.2299   18.6740 H   0  0  0  0  0  0  0  0  0  0  0  0
    2.4564   -9.2844   18.4556 H   0  0  0  0  0  0  0  0  0  0  0  0
    3.5232   -7.0694   19.1068 H   0  0  0  0  0  0  0  0  0  0  0  0
    1.8434   -5.5104   20.2162 H   0  0  0  0  0  0  0  0  0  0  0  0
  1  2  2  0
  2  3  1  0
  3  4  1  0
  4  5  1  0
  5  6  1  0
  6  7  2  0
  7  8  1  0
  8  9  2  0
  9 10  1  0
 10 11  2  0
 11 12  1  0
 12 13  1  0
  2 14  1  0
 14 15  1  0
 14 16  1  0
 16 17  1  0
 17 18  2  0
 18 19  1  0
 19 20  1  0
 20 21  2  0
 13  5  2  0
 21 17  1  0
 12  8  1  0
  3 22  1  0
  4 23  1  0
  4 24  1  0
  6 25  1  0
 10 26  1  0
 11 27  1  0
 13 28  1  0
 14 29  1  0
 15 30  1  0
 16 31  1  0
 16 32  1  0
 18 33  1  0
 19 34  1  0
 20 35  1  0
M  END
>  <Energy>  (1429) 
464.75115042917861

>  <compound_id>  (1429) 
47265

>  <target_id>  (1429) 
1

>  <reference_id>  (1429) 
80

>  <inspiration_ids>  (1429) 
[107, 80]

>  <energy_score>  (1429) 
392.84704423044013

>  <distance_score>  (1429) 
13.30733342782694

>  <path>  (1429) 
/opt/xchem-fragalysis-2/maxwin/BulkDock/SCRATCH/511023/C47265-P80/C47265-P80.minimised.mol

>  <scratch_subdir>  (1429) 
/opt/xchem-fragalysis-2/maxwin/BulkDock/SCRATCH/511023/C47265-P80

>  <fragmenstein_runtime>  (1429) 
18.9891197681427

>  <fragmenstein_outcome>  (1429) 
too moved

>  <fragmenstein_mode>  (1429) 
expansion

>  <fragmenstein_error>  (1429) 


$$$$
C8706-P107
     RDKit          3D

 37 39  0  0  0  0  0  0  0  0999 V2000
    2.5738  -15.1914   17.2867 C   0  0  0  0  0  0  0  0  0  0  0  0
    1.6607  -15.0429   15.8808 O   0  0  0  0  0  0  0  0  0  0  0  0
    1.5118  -15.5551   14.5992 C   0  0  0  0  0  0  0  0  0  0  0  0
    2.1382  -16.5329   14.1981 O   0  0  0  0  0  0  0  0  0  0  0  0
    0.4980  -14.6442   13.6298 C   0  0  0  0  0  0  0  0  0  0  0  0
    1.4879  -13.3531   13.5280 C   0  0  0  0  0  0  0  0  0  0  0  0
    1.4260  -11.9517   12.9874 C   0  0  0  0  0  0  0  0  0  0  0  0
    0.4928  -11.1746   12.3474 C   0  0  0  0  0  0  0  0  0  0  0  0
    1.0826   -9.9408   12.1622 N   0  0  0  0  0  0  0  0  0  0  0  0
    2.3382   -9.9839   12.6898 C   0  0  0  0  0  0  0  0  0  0  0  0
    2.5801  -11.1714   13.1876 N   0  0  0  0  0  0  0  0  0  0  0  0
   -0.8949  -14.8628   14.2912 N   0  0  0  0  0  0  0  0  0  0  0  0
   -2.1042  -15.6035   13.8105 C   0  0  0  0  0  0  0  0  0  0  0  0
   -2.3234  -16.1406   12.7548 O   0  0  0  0  0  0  0  0  0  0  0  0
   -3.3988  -15.8881   14.9419 C   0  0  0  0  0  0  0  0  0  0  0  0
   -4.7273  -16.3330   14.3446 C   0  0  0  0  0  0  0  0  0  0  0  0
   -5.6246  -16.9440   15.1507 C   0  0  0  0  0  0  0  0  0  0  0  0
   -5.3258  -17.1662   16.4863 N   0  0  0  0  0  0  0  0  0  0  0  0
   -6.0395  -17.8051   17.4798 C   0  0  0  0  0  0  0  0  0  0  0  0
   -5.2139  -17.8039   18.5765 C   0  0  0  0  0  0  0  0  0  0  0  0
   -4.0349  -17.1622   18.2771 N   0  0  0  0  0  0  0  0  0  0  0  0
   -4.1195  -16.7370   17.0191 C   0  0  0  0  0  0  0  0  0  0  0  0
   -3.2050  -16.0143   16.2471 N   0  0  0  0  0  0  0  0  0  0  0  0
    3.6586  -15.1307   17.2358 H   0  0  0  0  0  0  0  0  0  0  0  0
    2.4277  -16.1359   17.7494 H   0  0  0  0  0  0  0  0  0  0  0  0
    2.1698  -14.4319   17.9569 H   0  0  0  0  0  0  0  0  0  0  0  0
    0.4457  -15.1337   12.6515 H   0  0  0  0  0  0  0  0  0  0  0  0
    2.3567  -13.7653   12.9878 H   0  0  0  0  0  0  0  0  0  0  0  0
    1.8513  -13.1434   14.5273 H   0  0  0  0  0  0  0  0  0  0  0  0
   -0.5141  -11.3759   12.0110 H   0  0  0  0  0  0  0  0  0  0  0  0
    0.6614   -9.1427   11.7079 H   0  0  0  0  0  0  0  0  0  0  0  0
    3.0172   -9.1420   12.6789 H   0  0  0  0  0  0  0  0  0  0  0  0
   -1.0871  -14.4674   15.2110 H   0  0  0  0  0  0  0  0  0  0  0  0
   -4.8808  -16.1778   13.2842 H   0  0  0  0  0  0  0  0  0  0  0  0
   -6.5780  -17.3083   14.7900 H   0  0  0  0  0  0  0  0  0  0  0  0
   -7.0240  -18.2130   17.3065 H   0  0  0  0  0  0  0  0  0  0  0  0
   -5.3887  -18.2307   19.5552 H   0  0  0  0  0  0  0  0  0  0  0  0
  1  2  1  0
  2  3  1  0
  3  4  2  0
  3  5  1  0
  5  6  1  0
  6  7  1  0
  7  8  2  0
  8  9  1  0
  9 10  1  0
 10 11  2  0
  5 12  1  0
 12 13  1  0
 13 14  2  0
 13 15  1  0
 15 16  1  0
 16 17  2  0
 17 18  1  0
 18 19  1  0
 19 20  2  0
 20 21  1  0
 21 22  2  0
 22 23  1  0
 11  7  1  0
 23 15  2  0
 22 18  1  0
  1 24  1  0
  1 25  1  0
  1 26  1  0
  5 27  1  0
  6 28  1  0
  6 29  1  0
  8 30  1  0
  9 31  1  0
 10 32  1  0
 12 33  1  0
 16 34  1  0
 17 35  1  0
 19 36  1  0
 20 37  1  0
M  END
>  <Energy>  (1430) 
187.81539937484456

>  <compound_id>  (1430) 
8706

>  <target_id>  (1430) 
1

>  <reference_id>  (1430) 
107

>  <inspiration_ids>  (1430) 
[107, 80]

>  <energy_score>  (1430) 
86.69921329970236

>  <distance_score>  (1430) 
16.53653326996297

>  <path>  (1430) 
/opt/xchem-fragalysis-2/maxwin/BulkDock/SCRATCH/511023/C8706-P107/C8706-P107.minimised.mol

>  <scratch_subdir>  (1430) 
/opt/xchem-fragalysis-2/maxwin/BulkDock/SCRATCH/511023/C8706-P107

>  <fragmenstein_runtime>  (1430) 
34.61542010307312

>  <fragmenstein_outcome>  (1430) 
too moved

>  <fragmenstein_mode>  (1430) 
expansion

>  <fragmenstein_error>  (1430) 


$$$$
C8706-P80
     RDKit          3D

 37 39  0  0  0  0  0  0  0  0999 V2000
   -3.0633   -5.3303   22.9699 C   0  0  0  0  0  0  0  0  0  0  0  0
   -3.6010   -5.9875   21.8156 O   0  0  0  0  0  0  0  0  0  0  0  0
   -3.6786   -7.3369   21.7433 C   0  0  0  0  0  0  0  0  0  0  0  0
   -4.4656   -7.8711   20.9589 O   0  0  0  0  0  0  0  0  0  0  0  0
   -2.7494   -8.1819   22.6197 C   0  0  0  0  0  0  0  0  0  0  0  0
   -1.5263   -8.6228   21.6946 C   0  0  0  0  0  0  0  0  0  0  0  0
   -0.4761   -7.5681   21.3012 C   0  0  0  0  0  0  0  0  0  0  0  0
    0.0636   -7.3266   20.0466 C   0  0  0  0  0  0  0  0  0  0  0  0
    1.0714   -6.4170   20.2207 N   0  0  0  0  0  0  0  0  0  0  0  0
    1.1072   -6.1131   21.5500 C   0  0  0  0  0  0  0  0  0  0  0  0
    0.1893   -6.7792   22.2252 N   0  0  0  0  0  0  0  0  0  0  0  0
   -3.7146   -9.2214   23.2878 N   0  0  0  0  0  0  0  0  0  0  0  0
   -4.4687   -9.1617   24.5576 C   0  0  0  0  0  0  0  0  0  0  0  0
   -4.4642   -8.3348   25.4291 O   0  0  0  0  0  0  0  0  0  0  0  0
   -5.5288  -10.3448   24.9166 C   0  0  0  0  0  0  0  0  0  0  0  0
   -6.5405  -10.8024   23.8925 C   0  0  0  0  0  0  0  0  0  0  0  0
   -7.4470  -11.7228   24.2847 C   0  0  0  0  0  0  0  0  0  0  0  0
   -7.4572  -12.1735   25.5981 N   0  0  0  0  0  0  0  0  0  0  0  0
   -8.2595  -13.1044   26.2204 C   0  0  0  0  0  0  0  0  0  0  0  0
   -7.8136  -13.1535   27.5187 C   0  0  0  0  0  0  0  0  0  0  0  0
   -6.7637  -12.2839   27.6995 N   0  0  0  0  0  0  0  0  0  0  0  0
   -6.5459  -11.6913   26.5342 C   0  0  0  0  0  0  0  0  0  0  0  0
   -5.5639  -10.7860   26.1646 N   0  0  0  0  0  0  0  0  0  0  0  0
   -3.4776   -5.7545   23.8892 H   0  0  0  0  0  0  0  0  0  0  0  0
   -1.9731   -5.3774   22.9618 H   0  0  0  0  0  0  0  0  0  0  0  0
   -3.3598   -4.2787   22.9206 H   0  0  0  0  0  0  0  0  0  0  0  0
   -2.3650   -7.6152   23.4688 H   0  0  0  0  0  0  0  0  0  0  0  0
   -1.9367   -9.0526   20.7707 H   0  0  0  0  0  0  0  0  0  0  0  0
   -0.9787   -9.4373   22.1715 H   0  0  0  0  0  0  0  0  0  0  0  0
   -0.1448   -7.7664   19.0809 H   0  0  0  0  0  0  0  0  0  0  0  0
    1.6878   -6.0591   19.5041 H   0  0  0  0  0  0  0  0  0  0  0  0
    1.8168   -5.4121   21.9677 H   0  0  0  0  0  0  0  0  0  0  0  0
   -4.0320  -10.0321   22.7472 H   0  0  0  0  0  0  0  0  0  0  0  0
   -6.4941  -10.3929   22.8922 H   0  0  0  0  0  0  0  0  0  0  0  0
   -8.1960  -12.1249   23.6154 H   0  0  0  0  0  0  0  0  0  0  0  0
   -9.0483  -13.6238   25.6985 H   0  0  0  0  0  0  0  0  0  0  0  0
   -8.1825  -13.7603   28.3354 H   0  0  0  0  0  0  0  0  0  0  0  0
  1  2  1  0
  2  3  1  0
  3  4  2  0
  3  5  1  0
  5  6  1  0
  6  7  1  0
  7  8  2  0
  8  9  1  0
  9 10  1  0
 10 11  2  0
  5 12  1  0
 12 13  1  0
 13 14  2  0
 13 15  1  0
 15 16  1  0
 16 17  2  0
 17 18  1  0
 18 19  1  0
 19 20  2  0
 20 21  1  0
 21 22  2  0
 22 23  1  0
 11  7  1  0
 23 15  2  0
 22 18  1  0
  1 24  1  0
  1 25  1  0
  1 26  1  0
  5 27  1  0
  6 28  1  0
  6 29  1  0
  8 30  1  0
  9 31  1  0
 10 32  1  0
 12 33  1  0
 16 34  1  0
 17 35  1  0
 19 36  1  0
 20 37  1  0
M  END
>  <Energy>  (1431) 
110.02332716114341

>  <compound_id>  (1431) 
8706

>  <target_id>  (1431) 
1

>  <reference_id>  (1431) 
80

>  <inspiration_ids>  (1431) 
[107, 80]

>  <energy_score>  (1431) 
8.907141086001502

>  <distance_score>  (1431) 
14.229574272828364

>  <path>  (1431) 
/opt/xchem-fragalysis-2/maxwin/BulkDock/SCRATCH/511023/C8706-P80/C8706-P80.minimised.mol

>  <scratch_subdir>  (1431) 
/opt/xchem-fragalysis-2/maxwin/BulkDock/SCRATCH/511023/C8706-P80

>  <fragmenstein_runtime>  (1431) 
36.3373167514801

>  <fragmenstein_outcome>  (1431) 
too moved

>  <fragmenstein_mode>  (1431) 
expansion

>  <fragmenstein_error>  (1431) 


$$$$
C8696-P107
     RDKit          3D

 32 34  0  0  0  0  0  0  0  0999 V2000
   -3.3610  -17.6515   17.4170 O   0  0  0  0  0  0  0  0  0  0  0  0
   -3.3146  -17.7783   18.6077 C   0  0  0  0  0  0  0  0  0  0  0  0
   -2.4678  -17.1074   19.6133 N   0  0  0  0  0  0  0  0  0  0  0  0
   -1.4703  -15.9811   19.4759 C   0  0  0  0  0  0  0  0  0  0  0  0
    0.4697  -16.2240   19.6132 C   0  0  0  0  0  0  0  0  0  0  0  0
    0.3819  -16.4691   20.9686 O   0  0  0  0  0  0  0  0  0  0  0  0
    1.8940  -15.2379   18.5649 C   0  0  0  0  0  0  0  0  0  0  0  0
    2.6489  -14.4511   19.2684 C   0  0  0  0  0  0  0  0  0  0  0  0
    3.6624  -13.8715   18.5575 N   0  0  0  0  0  0  0  0  0  0  0  0
    3.8323  -15.0077   17.9079 C   0  0  0  0  0  0  0  0  0  0  0  0
    2.6747  -15.4659   17.4872 N   0  0  0  0  0  0  0  0  0  0  0  0
   -4.4323  -18.7605   19.2131 C   0  0  0  0  0  0  0  0  0  0  0  0
   -4.1532  -20.2431   19.2614 C   0  0  0  0  0  0  0  0  0  0  0  0
   -5.0591  -21.0058   19.9101 C   0  0  0  0  0  0  0  0  0  0  0  0
   -6.1909  -20.4177   20.4677 N   0  0  0  0  0  0  0  0  0  0  0  0
   -7.2231  -20.9652   21.1904 C   0  0  0  0  0  0  0  0  0  0  0  0
   -8.0713  -19.9155   21.4531 C   0  0  0  0  0  0  0  0  0  0  0  0
   -7.5525  -18.7365   20.9801 N   0  0  0  0  0  0  0  0  0  0  0  0
   -6.4387  -19.0519   20.3405 C   0  0  0  0  0  0  0  0  0  0  0  0
   -5.5467  -18.2316   19.6795 N   0  0  0  0  0  0  0  0  0  0  0  0
   -2.7522  -17.3955   20.5265 H   0  0  0  0  0  0  0  0  0  0  0  0
   -1.7606  -15.4208   18.5967 H   0  0  0  0  0  0  0  0  0  0  0  0
   -1.8285  -15.3258   20.2605 H   0  0  0  0  0  0  0  0  0  0  0  0
    0.6932  -17.2013   19.1819 H   0  0  0  0  0  0  0  0  0  0  0  0
   -0.4242  -16.9933   21.1177 H   0  0  0  0  0  0  0  0  0  0  0  0
    2.5337  -14.2817   20.3299 H   0  0  0  0  0  0  0  0  0  0  0  0
    4.3605  -13.3363   19.0498 H   0  0  0  0  0  0  0  0  0  0  0  0
    4.6830  -15.5576   18.1791 H   0  0  0  0  0  0  0  0  0  0  0  0
   -3.2539  -20.6214   18.7935 H   0  0  0  0  0  0  0  0  0  0  0  0
   -4.9544  -22.0779   20.0193 H   0  0  0  0  0  0  0  0  0  0  0  0
   -7.2894  -22.0227   21.4025 H   0  0  0  0  0  0  0  0  0  0  0  0
   -9.0365  -19.9407   21.9417 H   0  0  0  0  0  0  0  0  0  0  0  0
  1  2  2  0
  2  3  1  0
  3  4  1  0
  4  5  1  0
  5  6  1  0
  5  7  1  0
  7  8  2  0
  8  9  1  0
  9 10  1  0
 10 11  2  0
  2 12  1  0
 12 13  1  0
 13 14  2  0
 14 15  1  0
 15 16  1  0
 16 17  2  0
 17 18  1  0
 18 19  2  0
 19 20  1  0
 11  7  1  0
 20 12  2  0
 19 15  1  0
  3 21  1  0
  4 22  1  0
  4 23  1  0
  5 24  1  0
  6 25  1  0
  8 26  1  0
  9 27  1  0
 10 28  1  0
 13 29  1  0
 14 30  1  0
 16 31  1  0
 17 32  1  0
M  END
>  <Energy>  (1432) 
298.64951514094736

>  <compound_id>  (1432) 
8696

>  <target_id>  (1432) 
1

>  <reference_id>  (1432) 
107

>  <inspiration_ids>  (1432) 
[107, 80]

>  <energy_score>  (1432) 
181.9334657178485

>  <distance_score>  (1432) 
14.214203541346327

>  <path>  (1432) 
/opt/xchem-fragalysis-2/maxwin/BulkDock/SCRATCH/511023/C8696-P107/C8696-P107.minimised.mol

>  <scratch_subdir>  (1432) 
/opt/xchem-fragalysis-2/maxwin/BulkDock/SCRATCH/511023/C8696-P107

>  <fragmenstein_runtime>  (1432) 
21.40390706062317

>  <fragmenstein_outcome>  (1432) 
too moved

>  <fragmenstein_mode>  (1432) 
expansion

>  <fragmenstein_error>  (1432) 


$$$$
C8696-P80
     RDKit          3D

 32 34  0  0  0  0  0  0  0  0999 V2000
    5.0553  -22.2032   21.4284 O   0  0  0  0  0  0  0  0  0  0  0  0
    4.9660  -21.2965   22.2109 C   0  0  0  0  0  0  0  0  0  0  0  0
    5.7462  -20.0542   22.3290 N   0  0  0  0  0  0  0  0  0  0  0  0
    6.8370  -19.4762   21.4459 C   0  0  0  0  0  0  0  0  0  0  0  0
    8.0866  -18.6577   22.0295 C   0  0  0  0  0  0  0  0  0  0  0  0
    7.6961  -17.9557   23.2265 O   0  0  0  0  0  0  0  0  0  0  0  0
    8.8479  -17.6651   21.0935 C   0  0  0  0  0  0  0  0  0  0  0  0
    8.8346  -17.4539   19.7276 C   0  0  0  0  0  0  0  0  0  0  0  0
    9.6382  -16.3594   19.4906 N   0  0  0  0  0  0  0  0  0  0  0  0
   10.1222  -15.9300   20.6901 C   0  0  0  0  0  0  0  0  0  0  0  0
    9.6835  -16.6902   21.6719 N   0  0  0  0  0  0  0  0  0  0  0  0
    3.7075  -21.4717   23.2781 C   0  0  0  0  0  0  0  0  0  0  0  0
    4.0013  -21.2957   24.7494 C   0  0  0  0  0  0  0  0  0  0  0  0
    3.0234  -21.6062   25.6244 C   0  0  0  0  0  0  0  0  0  0  0  0
    1.8007  -22.0709   25.1627 N   0  0  0  0  0  0  0  0  0  0  0  0
    0.7052  -22.5258   25.8640 C   0  0  0  0  0  0  0  0  0  0  0  0
   -0.2040  -22.8912   24.9016 C   0  0  0  0  0  0  0  0  0  0  0  0
    0.3184  -22.6895   23.6434 N   0  0  0  0  0  0  0  0  0  0  0  0
    1.5410  -22.1938   23.8007 C   0  0  0  0  0  0  0  0  0  0  0  0
    2.5193  -21.8858   22.8600 N   0  0  0  0  0  0  0  0  0  0  0  0
    5.3398  -19.4740   23.0587 H   0  0  0  0  0  0  0  0  0  0  0  0
    6.2991  -18.7421   20.8466 H   0  0  0  0  0  0  0  0  0  0  0  0
    7.1884  -20.2673   20.7764 H   0  0  0  0  0  0  0  0  0  0  0  0
    8.8224  -19.4040   22.3542 H   0  0  0  0  0  0  0  0  0  0  0  0
    8.4538  -17.3571   23.3904 H   0  0  0  0  0  0  0  0  0  0  0  0
    8.3152  -17.9564   18.9244 H   0  0  0  0  0  0  0  0  0  0  0  0
    9.8393  -15.9471   18.5899 H   0  0  0  0  0  0  0  0  0  0  0  0
   10.7849  -15.0802   20.7873 H   0  0  0  0  0  0  0  0  0  0  0  0
    4.9894  -20.9686   25.0400 H   0  0  0  0  0  0  0  0  0  0  0  0
    3.1544  -21.5404   26.6961 H   0  0  0  0  0  0  0  0  0  0  0  0
    0.6763  -22.5443   26.9422 H   0  0  0  0  0  0  0  0  0  0  0  0
   -1.2012  -23.2885   25.0331 H   0  0  0  0  0  0  0  0  0  0  0  0
  1  2  2  0
  2  3  1  0
  3  4  1  0
  4  5  1  0
  5  6  1  0
  5  7  1  0
  7  8  2  0
  8  9  1  0
  9 10  1  0
 10 11  2  0
  2 12  1  0
 12 13  1  0
 13 14  2  0
 14 15  1  0
 15 16  1  0
 16 17  2  0
 17 18  1  0
 18 19  2  0
 19 20  1  0
 11  7  1  0
 20 12  2  0
 19 15  1  0
  3 21  1  0
  4 22  1  0
  4 23  1  0
  5 24  1  0
  6 25  1  0
  8 26  1  0
  9 27  1  0
 10 28  1  0
 13 29  1  0
 14 30  1  0
 16 31  1  0
 17 32  1  0
M  END
>  <Energy>  (1433) 
112.88156099820918

>  <compound_id>  (1433) 
8696

>  <target_id>  (1433) 
1

>  <reference_id>  (1433) 
80

>  <inspiration_ids>  (1433) 
[107, 80]

>  <energy_score>  (1433) 
-3.834488424884853

>  <distance_score>  (1433) 
15.77110272067085

>  <path>  (1433) 
/opt/xchem-fragalysis-2/maxwin/BulkDock/SCRATCH/511023/C8696-P80/C8696-P80.minimised.mol

>  <scratch_subdir>  (1433) 
/opt/xchem-fragalysis-2/maxwin/BulkDock/SCRATCH/511023/C8696-P80

>  <fragmenstein_runtime>  (1433) 
17.31764531135559

>  <fragmenstein_outcome>  (1433) 
too moved

>  <fragmenstein_mode>  (1433) 
expansion

>  <fragmenstein_error>  (1433) 


$$$$
C47256-P107
     RDKit          3D

 35 38  0  0  0  0  0  0  0  0999 V2000
   -1.8013  -14.8786   28.2242 O   0  0  0  0  0  0  0  0  0  0  0  0
   -2.0974  -15.3710   27.1764 C   0  0  0  0  0  0  0  0  0  0  0  0
   -2.3105  -14.6607   25.6717 N   0  0  0  0  0  0  0  0  0  0  0  0
   -2.0989  -13.0049   25.1541 C   0  0  0  0  0  0  0  0  0  0  0  0
   -0.7636  -13.7867   23.9221 C   0  0  0  0  0  0  0  0  0  0  0  0
   -0.4600  -12.4448   22.5340 C   0  0  0  0  0  0  0  0  0  0  0  0
   -1.7458  -11.1872   21.6716 C   0  0  0  0  0  0  0  0  0  0  0  0
   -1.1008   -9.9443   21.1957 C   0  0  0  0  0  0  0  0  0  0  0  0
    0.1776   -9.6238   21.3011 N   0  0  0  0  0  0  0  0  0  0  0  0
    0.1685   -8.4852   22.0069 C   0  0  0  0  0  0  0  0  0  0  0  0
   -1.1065   -8.2969   22.4125 C   0  0  0  0  0  0  0  0  0  0  0  0
   -1.7928   -8.7861   21.3411 N   0  0  0  0  0  0  0  0  0  0  0  0
   -3.3785  -10.6071   22.5856 C   0  0  0  0  0  0  0  0  0  0  0  0
   -3.3783  -11.7376   24.2827 C   0  0  0  0  0  0  0  0  0  0  0  0
   -2.4883  -17.0742   27.2060 C   0  0  0  0  0  0  0  0  0  0  0  0
   -3.5289  -17.7346   27.9377 C   0  0  0  0  0  0  0  0  0  0  0  0
   -3.1885  -19.1260   27.9227 N   0  0  0  0  0  0  0  0  0  0  0  0
   -3.6162  -20.1658   28.7367 C   0  0  0  0  0  0  0  0  0  0  0  0
   -3.0534  -21.3726   28.5896 C   0  0  0  0  0  0  0  0  0  0  0  0
   -2.1059  -21.4945   27.4552 C   0  0  0  0  0  0  0  0  0  0  0  0
   -1.6443  -20.5260   26.7279 N   0  0  0  0  0  0  0  0  0  0  0  0
   -2.1087  -19.2810   27.0437 C   0  0  0  0  0  0  0  0  0  0  0  0
   -1.6667  -18.0988   26.6425 N   0  0  0  0  0  0  0  0  0  0  0  0
   -2.4803  -15.3799   24.9704 H   0  0  0  0  0  0  0  0  0  0  0  0
   -1.1043  -14.7816   23.6012 H   0  0  0  0  0  0  0  0  0  0  0  0
    0.4437  -11.7017   22.7172 H   0  0  0  0  0  0  0  0  0  0  0  0
    1.0437   -8.0400   22.4039 H   0  0  0  0  0  0  0  0  0  0  0  0
   -1.5593   -7.7816   23.2391 H   0  0  0  0  0  0  0  0  0  0  0  0
   -2.7883   -8.6853   21.2362 H   0  0  0  0  0  0  0  0  0  0  0  0
   -4.1319   -9.9984   22.1105 H   0  0  0  0  0  0  0  0  0  0  0  0
   -4.4171  -12.0223   24.5010 H   0  0  0  0  0  0  0  0  0  0  0  0
   -4.2251  -17.4003   28.6940 H   0  0  0  0  0  0  0  0  0  0  0  0
   -4.3024  -19.9054   29.5303 H   0  0  0  0  0  0  0  0  0  0  0  0
   -3.1910  -22.2200   29.2393 H   0  0  0  0  0  0  0  0  0  0  0  0
   -1.7620  -22.5210   27.2450 H   0  0  0  0  0  0  0  0  0  0  0  0
  1  2  2  0
  2  3  1  0
  3  4  1  0
  4  5  2  0
  5  6  1  0
  6  7  2  0
  7  8  1  0
  8  9  2  0
  9 10  1  0
 10 11  2  0
 11 12  1  0
  7 13  1  0
 13 14  2  0
  2 15  1  0
 15 16  2  0
 16 17  1  0
 17 18  1  0
 18 19  2  0
 19 20  1  0
 20 21  2  0
 21 22  1  0
 22 23  2  0
 14  4  1  0
 23 15  1  0
 12  8  1  0
 22 17  1  0
  3 24  1  0
  5 25  1  0
  6 26  1  0
 10 27  1  0
 11 28  1  0
 12 29  1  0
 13 30  1  0
 14 31  1  0
 16 32  1  0
 18 33  1  0
 19 34  1  0
 20 35  1  0
M  END
